3b6c_SDN_2_ligand
  -OEChem-08111718373D

 34 36  0     1  0  0  0  0  0999 V2000
  -30.6839   -9.1032   -2.8185 H   0  0  0  0  0  0  0  0  0  0  0  0
  -30.2771  -10.9454   -4.3257 H   0  0  0  0  0  0  0  0  0  0  0  0
  -29.6298   -6.9798   -3.2297 H   0  0  0  0  0  0  0  0  0  0  0  0
  -29.1951  -11.8231   -6.3158 H   0  0  0  0  0  0  0  0  0  0  0  0
  -25.1235   -8.0389   -9.9771 H   0  0  0  0  0  0  0  0  0  0  0  0
  -26.0542   -7.2835   -8.7269 H   0  0  0  0  0  0  0  0  0  0  0  0
  -28.5231  -12.2204   -8.8519 H   0  0  0  0  0  0  0  0  0  0  0  0
  -27.2820  -12.7081   -7.9093 H   0  0  0  0  0  0  0  0  0  0  0  0
  -26.1254  -12.5609   -9.7041 H   0  0  0  0  0  0  0  0  0  0  0  0
  -27.4596  -10.5573  -11.1456 H   0  0  0  0  0  0  0  0  0  0  0  0
  -28.3126  -11.9252  -10.8848 H   0  0  0  0  0  0  0  0  0  0  0  0
  -28.2343   -5.7646   -4.5352 H   0  0  0  0  0  0  0  0  0  0  0  0
  -27.1752   -6.6550   -6.3943 H   0  0  0  0  0  0  0  0  0  0  0  0
  -30.0790   -8.9850   -3.6060 C   0  0  0  0  0  0  0  0  0  0  0  0
  -29.8390  -10.0610   -4.4870 C   0  0  0  0  0  0  0  0  0  0  0  0
  -29.4630   -7.7510   -3.8440 C   0  0  0  0  0  0  0  0  0  0  0  0
  -28.7450  -10.9420   -6.4610 C   0  0  0  0  0  0  0  0  0  0  0  0
  -28.9960   -9.8940   -5.5770 C   0  0  0  0  0  0  0  0  0  0  0  0
  -28.3770   -8.6610   -5.8030 C   0  0  0  0  0  0  0  0  0  0  0  0
  -27.2620   -9.5770   -7.7270 C   0  0  0  0  0  0  0  0  0  0  0  0
  -27.8800  -10.7880   -7.5430 C   0  0  0  0  0  0  0  0  0  0  0  0
  -28.6190   -7.6020   -4.9370 C   0  0  0  0  0  0  0  0  0  0  0  0
  -27.5270   -8.5150   -6.8690 C   0  0  0  0  0  0  0  0  0  0  0  0
  -26.3160   -9.4310   -8.8240 C   0  0  0  0  0  0  0  0  0  0  0  0
  -25.7720   -8.1070   -9.2190 C   0  0  0  0  0  0  0  0  0  0  0  0
  -26.6120  -12.2300  -12.0340 C   0  0  0  0  0  0  0  0  0  0  0  0
  -27.6410  -11.9560   -8.4620 C   0  0  2  0  0  0  0  0  0  0  0  0
  -26.6750  -11.7300   -9.6170 C   0  0  1  0  0  0  0  0  0  0  0  0
  -27.3940  -11.5340  -10.9410 C   0  0  1  0  0  0  0  0  0  0  0  0
  -25.5560  -11.7150  -12.4170 O   0  5  0  0  0  0  0  0  0  0  0  0
  -27.0430  -13.2880  -12.5280 O   0  0  0  0  0  0  0  0  0  0  0  0
  -25.7710  -10.6550   -9.4250 O   0  0  0  0  0  0  0  0  0  0  0  0
  -28.0730   -6.5390   -5.1470 O   0  0  0  0  0  0  0  0  0  0  0  0
  -26.9840   -7.4020   -7.0310 O   0  0  0  0  0  0  0  0  0  0  0  0
  1 14  1  0  0  0  0
  2 15  1  0  0  0  0
  3 16  1  0  0  0  0
  4 17  1  0  0  0  0
  5 25  1  0  0  0  0
  6 25  1  0  0  0  0
  7 27  1  0  0  0  0
  8 27  1  0  0  0  0
  9 28  1  0  0  0  0
 10 29  1  0  0  0  0
 11 29  1  0  0  0  0
 12 33  1  0  0  0  0
 13 34  1  0  0  0  0
 14 15  1  0  0  0  0
 14 16  2  0  0  0  0
 15 18  2  0  0  0  0
 16 22  1  0  0  0  0
 17 18  1  0  0  0  0
 17 21  2  0  0  0  0
 18 19  1  0  0  0  0
 19 22  2  0  0  0  0
 19 23  1  0  0  0  0
 20 21  1  0  0  0  0
 20 23  2  0  0  0  0
 20 24  1  0  0  0  0
 21 27  1  0  0  0  0
 22 33  1  0  0  0  0
 23 34  1  0  0  0  0
 24 25  2  0  0  0  0
 24 32  1  0  0  0  0
 26 29  1  0  0  0  0
 26 30  1  0  0  0  0
 26 31  2  0  0  0  0
 27 28  1  0  0  0  0
 28 29  1  0  0  0  0
 28 32  1  0  0  0  0
M  CHG  1  30  -1
M  END
> <scpdb_id>
3b6c_2

$$$$
