3cs8_BRL_1_ligand
  -OEChem-08111718373D

 43 45  0     1  0  0  0  0  0999 V2000
   19.9093    3.4226   31.3466 H   0  0  0  0  0  0  0  0  0  0  0  0
   18.3662    3.0765   29.5348 H   0  0  0  0  0  0  0  0  0  0  0  0
   25.5581   -0.6273   24.4834 H   0  0  0  0  0  0  0  0  0  0  0  0
   29.2936    0.5303   25.8857 H   0  0  0  0  0  0  0  0  0  0  0  0
   24.6599    1.5355   25.0187 H   0  0  0  0  0  0  0  0  0  0  0  0
   28.4092    2.6939   26.3945 H   0  0  0  0  0  0  0  0  0  0  0  0
   22.1989    3.9854   30.8924 H   0  0  0  0  0  0  0  0  0  0  0  0
   19.1549    3.3052   27.2780 H   0  0  0  0  0  0  0  0  0  0  0  0
   26.4187   -2.7581   25.2647 H   0  0  0  0  0  0  0  0  0  0  0  0
   23.6014    5.2817   30.2444 H   0  0  0  0  0  0  0  0  0  0  0  0
   24.9541    4.5739   29.6646 H   0  0  0  0  0  0  0  0  0  0  0  0
   24.3919    5.9452   28.9788 H   0  0  0  0  0  0  0  0  0  0  0  0
   27.9564   -1.7719   23.8561 H   0  0  0  0  0  0  0  0  0  0  0  0
   29.0393   -1.5953   25.0656 H   0  0  0  0  0  0  0  0  0  0  0  0
   23.6537    4.5534   26.5069 H   0  0  0  0  0  0  0  0  0  0  0  0
   23.4766    2.9892   26.9412 H   0  0  0  0  0  0  0  0  0  0  0  0
   25.7483    4.5797   27.7710 H   0  0  0  0  0  0  0  0  0  0  0  0
   25.5930    2.9645   27.9545 H   0  0  0  0  0  0  0  0  0  0  0  0
   20.2220    3.5120   30.4010 C   0  0  0  0  0  0  0  0  0  0  0  0
   19.3210    3.3100   29.3510 C   0  0  0  0  0  0  0  0  0  0  0  0
   26.1480    0.0710   24.8890 C   0  0  0  0  0  0  0  0  0  0  0  0
   28.3330    0.7390   25.7020 C   0  0  0  0  0  0  0  0  0  0  0  0
   25.6220    1.3290   25.1970 C   0  0  0  0  0  0  0  0  0  0  0  0
   27.8120    1.9950   26.0010 C   0  0  0  0  0  0  0  0  0  0  0  0
   21.5570    3.8380   30.1400 C   0  0  0  0  0  0  0  0  0  0  0  0
   19.7820    3.4410   28.0450 C   0  0  0  0  0  0  0  0  0  0  0  0
   27.4960   -0.2200   25.1440 C   0  0  0  0  0  0  0  0  0  0  0  0
   26.4660    2.2960   25.7600 C   0  0  0  0  0  0  0  0  0  0  0  0
   21.9820    3.9550   28.8130 C   0  0  0  0  0  0  0  0  0  0  0  0
   28.0350   -3.9820   25.4700 C   0  0  0  0  0  0  0  0  0  0  0  0
   27.5790   -3.9650   27.6500 C   0  0  0  0  0  0  0  0  0  0  0  0
   27.3410   -2.6660   25.6400 C   0  0  2  0  0  0  0  0  0  0  0  0
   24.1310    5.0860   29.4190 C   0  0  0  0  0  0  0  0  0  0  0  0
   28.0670   -1.5840   24.8320 C   0  0  1  0  0  0  0  0  0  0  0  0
   23.8670    3.8710   27.2060 C   0  0  1  0  0  0  0  0  0  0  0  0
   25.3830    3.7430   27.3630 C   0  0  1  0  0  0  0  0  0  0  0  0
   21.0740    3.7510   27.8120 N   0  0  0  0  0  0  0  0  0  0  0  0
   28.2040   -4.5810   26.6430 N   0  5  0  0  0  0  0  0  0  0  0  0
   23.3190    4.2910   28.4950 N   0  0  0  0  0  0  0  0  0  0  0  0
   28.3630   -4.4260   24.3720 O   0  0  0  0  0  0  0  0  0  0  0  0
   27.2690   -4.4720   28.7180 O   0  0  0  0  0  0  0  0  0  0  0  0
   25.9760    3.5400   26.0780 O   0  0  0  0  0  0  0  0  0  0  0  0
   27.1860   -2.3790   27.3990 S   0  0  0  0  0  0  0  0  0  0  0  0
  1 19  1  0  0  0  0
  2 20  1  0  0  0  0
  3 21  1  0  0  0  0
  4 22  1  0  0  0  0
  5 23  1  0  0  0  0
  6 24  1  0  0  0  0
  7 25  1  0  0  0  0
  8 26  1  0  0  0  0
  9 32  1  0  0  0  0
 10 33  1  0  0  0  0
 11 33  1  0  0  0  0
 12 33  1  0  0  0  0
 13 34  1  0  0  0  0
 14 34  1  0  0  0  0
 15 35  1  0  0  0  0
 16 35  1  0  0  0  0
 17 36  1  0  0  0  0
 18 36  1  0  0  0  0
 19 20  1  0  0  0  0
 19 25  2  0  0  0  0
 20 26  2  0  0  0  0
 21 23  1  0  0  0  0
 21 27  2  0  0  0  0
 22 24  2  0  0  0  0
 22 27  1  0  0  0  0
 23 28  2  0  0  0  0
 24 28  1  0  0  0  0
 25 29  1  0  0  0  0
 26 37  1  0  0  0  0
 27 34  1  0  0  0  0
 28 42  1  0  0  0  0
 29 37  2  0  0  0  0
 29 39  1  0  0  0  0
 30 32  1  0  0  0  0
 30 38  1  0  0  0  0
 30 40  2  0  0  0  0
 31 38  1  0  0  0  0
 31 41  2  0  0  0  0
 31 43  1  0  0  0  0
 32 34  1  0  0  0  0
 32 43  1  0  0  0  0
 33 39  1  0  0  0  0
 35 36  1  0  0  0  0
 35 39  1  0  0  0  0
 36 42  1  0  0  0  0
M  CHG  1  38  -1
M  END
> <scpdb_id>
3cs8_1

$$$$
