3jpu_TY4_2_ligand
  -OEChem-08111718373D

 45 47  0     1  0  0  0  0  0999 V2000
  -47.6650  -28.6557   -8.0678 H   0  0  0  0  0  0  0  0  0  0  0  0
  -46.3673  -27.0389   -9.2540 H   0  0  0  0  0  0  0  0  0  0  0  0
  -46.6961  -29.9918   -6.3404 H   0  0  0  0  0  0  0  0  0  0  0  0
  -44.9959  -31.8387   -0.7083 H   0  0  0  0  0  0  0  0  0  0  0  0
  -44.0631  -26.7029   -8.6609 H   0  0  0  0  0  0  0  0  0  0  0  0
  -46.8024  -32.0691    0.8155 H   0  0  0  0  0  0  0  0  0  0  0  0
  -38.3019  -29.6226   -1.9186 H   0  0  0  0  0  0  0  0  0  0  0  0
  -41.4277  -29.6812   -4.6963 H   0  0  0  0  0  0  0  0  0  0  0  0
  -44.3789  -33.8173    3.7225 H   0  0  0  0  0  0  0  0  0  0  0  0
  -38.7105  -30.3029    0.4394 H   0  0  0  0  0  0  0  0  0  0  0  0
  -40.2189  -29.9432    0.9514 H   0  0  0  0  0  0  0  0  0  0  0  0
  -39.8234  -31.4875    0.5973 H   0  0  0  0  0  0  0  0  0  0  0  0
  -44.0333  -30.6118   -2.3053 H   0  0  0  0  0  0  0  0  0  0  0  0
  -43.5684  -31.5633   -3.5483 H   0  0  0  0  0  0  0  0  0  0  0  0
  -44.3425  -28.7750   -3.7923 H   0  0  0  0  0  0  0  0  0  0  0  0
  -46.7010  -28.5290   -7.8340 C   0  0  0  0  0  0  0  0  0  0  0  0
  -45.9510  -27.5810   -8.5240 C   0  0  0  0  0  0  0  0  0  0  0  0
  -46.1280  -29.3160   -6.8100 C   0  0  0  0  0  0  0  0  0  0  0  0
  -44.8580  -32.2450    0.1950 C   0  0  0  0  0  0  0  0  0  0  0  0
  -44.6010  -27.3960   -8.1810 C   0  0  0  0  0  0  0  0  0  0  0  0
  -45.8900  -32.3790    1.0830 C   0  0  0  0  0  0  0  0  0  0  0  0
  -39.2640  -29.8170   -2.1100 C   0  0  0  0  0  0  0  0  0  0  0  0
  -41.1330  -29.8570   -3.7570 C   0  0  0  0  0  0  0  0  0  0  0  0
  -44.4790  -33.4050    2.8170 C   0  0  0  0  0  0  0  0  0  0  0  0
  -44.8010  -29.1770   -6.4390 C   0  0  0  0  0  0  0  0  0  0  0  0
  -43.6300  -32.6910    0.5970 C   0  0  0  0  0  0  0  0  0  0  0  0
  -40.1200  -30.3100   -1.1040 C   0  0  0  0  0  0  0  0  0  0  0  0
  -42.0470  -30.3440   -2.8400 C   0  0  0  0  0  0  0  0  0  0  0  0
  -41.5430  -30.5850   -1.4940 C   0  0  0  0  0  0  0  0  0  0  0  0
  -45.7110  -32.9300    2.3400 C   0  0  0  0  0  0  0  0  0  0  0  0
  -43.9900  -28.1710   -7.1710 C   0  0  0  0  0  0  0  0  0  0  0  0
  -43.4150  -33.2630    1.9480 C   0  0  0  0  0  0  0  0  0  0  0  0
  -39.8080  -29.6060   -3.3980 C   0  0  0  0  0  0  0  0  0  0  0  0
  -44.1670  -30.0420   -5.3810 C   0  0  0  0  0  0  0  0  0  0  0  0
  -42.5120  -32.4670   -0.3370 C   0  0  0  0  0  0  0  0  0  0  0  0
  -39.6800  -30.5300    0.3470 C   0  0  0  0  0  0  0  0  0  0  0  0
  -43.5040  -30.6470   -3.1530 C   0  0  2  0  0  0  0  0  0  0  0  0
  -44.0550  -29.6830   -4.0970 N   0  0  0  0  0  0  0  0  0  0  0  0
  -43.7280  -31.1190   -5.7600 O   0  0  0  0  0  0  0  0  0  0  0  0
  -41.6890  -33.2790   -0.7670 O   0  0  0  0  0  0  0  0  0  0  0  0
  -42.4770  -31.0520   -0.6380 O   0  0  0  0  0  0  0  0  0  0  0  0
  -47.2410  -32.9440    3.2780 Cl  0  0  0  0  0  0  0  0  0  0  0  0
  -42.2480  -27.9560   -6.7210 Cl  0  0  0  0  0  0  0  0  0  0  0  0
  -41.7420  -33.7650    2.2580 Cl  0  0  0  0  0  0  0  0  0  0  0  0
  -38.7930  -28.9660   -4.8550 Br  0  0  0  0  0  0  0  0  0  0  0  0
  1 16  1  0  0  0  0
  2 17  1  0  0  0  0
  3 18  1  0  0  0  0
  4 19  1  0  0  0  0
  5 20  1  0  0  0  0
  6 21  1  0  0  0  0
  7 22  1  0  0  0  0
  8 23  1  0  0  0  0
  9 24  1  0  0  0  0
 10 36  1  0  0  0  0
 11 36  1  0  0  0  0
 12 36  1  0  0  0  0
 13 37  1  0  0  0  0
 14 37  1  0  0  0  0
 15 38  1  0  0  0  0
 16 17  2  0  0  0  0
 16 18  1  0  0  0  0
 17 20  1  0  0  0  0
 18 25  2  0  0  0  0
 19 21  1  0  0  0  0
 19 26  2  0  0  0  0
 20 31  2  0  0  0  0
 21 30  2  0  0  0  0
 22 27  1  0  0  0  0
 22 33  2  0  0  0  0
 23 28  2  0  0  0  0
 23 33  1  0  0  0  0
 24 30  1  0  0  0  0
 24 32  2  0  0  0  0
 25 31  1  0  0  0  0
 25 34  1  0  0  0  0
 26 32  1  0  0  0  0
 26 35  1  0  0  0  0
 27 29  2  0  0  0  0
 27 36  1  0  0  0  0
 28 29  1  0  0  0  0
 28 37  1  0  0  0  0
 29 41  1  0  0  0  0
 30 42  1  0  0  0  0
 31 43  1  0  0  0  0
 32 44  1  0  0  0  0
 33 45  1  0  0  0  0
 34 38  1  0  0  0  0
 34 39  2  0  0  0  0
 35 40  2  0  0  0  0
 35 41  1  0  0  0  0
 37 38  1  0  0  0  0
M  END
> <scpdb_id>
3jpu_2

$$$$
