#    Name: 24091
#    Modification time : Tue Aug  8 23:51:51 2017

@<TRIPOS>MOLECULE
24091
   70     0     9     0     0
SMALL
NO_CHARGES


@<TRIPOS>ATOM
      1 N          46.0870   -3.6410   33.4590 N.am      1 SEL1        0.0000 
      2 N          44.6690    3.2860   42.3940 N.am      1 SEL1        0.0000 
      3 N          47.2080   -2.6790   31.7540 N.am      1 SEL1        0.0000 
      4 NZ         47.2080   -2.6790   31.7540 N.4       2 LYL3        0.0000 
      5 CA         47.2970   -1.2380   36.0000 C.3       3 GLL5        0.0000 
      6 CA         45.3710   -0.1540   41.2450 C.3       3 GLL5        0.0000 
      7 CA         44.6200    2.3260   40.1370 C.3       3 GLL5        0.0000 
      8 CA         44.7800    1.1900   39.3080 C.3       3 GLL5        0.0000 
      9 CA         48.5430   -1.3100   38.8270 C.3       3 GLL5        0.0000 
     10 CA         45.5920    0.6820   44.0980 C.3       3 GLL5        0.0000 
     11 CA         42.5540   -1.4870   37.5100 C.3       3 GLL5        0.0000 
     12 CA         45.6550   -1.2970   37.8130 C.3       3 GLL5        0.0000 
     13 CA         44.8950   -1.2980   35.4330 C.3       3 GLL5        0.0000 
     14 CA         44.5820   -1.3260   36.8420 C.3       3 GLL5        0.0000 
     15 CA         44.8410    2.1940   41.5330 C.3       3 GLL5        0.0000 
     16 N          45.9150   -5.7470   31.2580 N.am      4 SEP1        0.0000 
     17 N          48.5580   -5.0570   33.6660 N.am      4 SEP1        0.0000 
     18 N          43.0410    5.0660   41.0930 N.am      4 SEP1        0.0000 
     19 N          47.2940   -4.7880   29.7010 N.am      4 SEP1        0.0000 
     20 NZ         46.6380   -5.8510   30.1490 N.4       5 LYP3        0.0000 
     21 CA         47.3580   -5.4210   36.8360 C.3       6 GLP5        0.0000 
     22 CA         48.4900   -1.9670   43.2200 C.3       6 GLP5        0.0000 
     23 CA         42.8480   -3.8380   41.7290 C.3       6 GLP5        0.0000 
     24 CA         40.9400    2.6740   38.7870 C.3       6 GLP5        0.0000 
     25 CA         41.8970    3.3630   37.4000 C.3       6 GLP5        0.0000 
     26 CA         51.9700   -3.1610   38.8530 C.3       6 GLP5        0.0000 
     27 CA         50.6170    2.1420   39.3440 C.3       6 GLP5        0.0000 
     28 CA         46.3380   -5.0030   39.0980 C.3       6 GLP5        0.0000 
     29 CA         47.3550    1.5860   47.4450 C.3       6 GLP5        0.0000 
     30 CA         41.5830    1.4110   42.6250 C.3       6 GLP5        0.0000 
     31 CA         41.2420   -0.7510   41.4390 C.3       6 GLP5        0.0000 
     32 CA         42.5880   -3.9960   34.2950 C.3       6 GLP5        0.0000 
     33 CA         44.8920   -5.1410   37.0570 C.3       6 GLP5        0.0000 
     34 CA         39.0000   -1.0700   38.2570 C.3       6 GLP5        0.0000 
     35 CA         45.6130    3.9480   36.0830 C.3       6 GLP5        0.0000 
     36 CA         49.7320    1.0520   34.0450 C.3       6 GLP5        0.0000 
     37 CA         44.5360    2.0580   33.6220 C.3       6 GLP5        0.0000 
     38 CA         48.2660    2.9800   39.8220 C.3       6 GLP5        0.0000 
     39 N          46.0010   -4.6940   32.3585 N.am      7 SEC1        0.0000 
     40 N          47.3225   -4.3490   33.5625 N.am      7 SEC1        0.0000 
     41 N          43.8550    4.1760   41.7435 N.am      7 SEC1        0.0000 
     42 N          46.5615   -4.2130   31.5060 N.am      7 SEC1        0.0000 
     43 N          47.8830   -3.8680   32.7100 N.am      7 SEC1        0.0000 
     44 N          47.2510   -3.7335   30.7275 N.am      7 SEC1        0.0000 
     45 NZ         46.9230   -4.2650   30.9515 N.4       8 LYC3        0.0000 
     46 CA         47.3275   -3.3295   36.4180 C.3       9 GLC5        0.0000 
     47 CA         46.9305   -1.0605   42.2325 C.3       9 GLC5        0.0000 
     48 CA         44.1095   -1.9960   41.4870 C.3       9 GLC5        0.0000 
     49 CA         42.7800    2.5000   39.4620 C.3       9 GLC5        0.0000 
     50 CA         43.3385    2.2765   38.3540 C.3       9 GLC5        0.0000 
     51 CA         48.5165   -1.6385   41.0235 C.3       9 GLC5        0.0000 
     52 CA         50.2565   -2.2355   38.8400 C.3       9 GLC5        0.0000 
     53 CA         49.5800    0.4160   39.0855 C.3       9 GLC5        0.0000 
     54 CA         47.4405   -3.1565   38.9625 C.3       9 GLC5        0.0000 
     55 CA         46.4735    1.1340   45.7715 C.3       9 GLC5        0.0000 
     56 CA         47.0410   -0.6425   43.6590 C.3       9 GLC5        0.0000 
     57 CA         43.5875    1.0465   43.3615 C.3       9 GLC5        0.0000 
     58 CA         41.8980   -1.1190   39.4745 C.3       9 GLC5        0.0000 
     59 CA         42.5710   -2.7415   35.9025 C.3       9 GLC5        0.0000 
     60 CA         43.7230   -3.3140   37.2835 C.3       9 GLC5        0.0000 
     61 CA         40.7770   -1.2785   37.8835 C.3       9 GLC5        0.0000 
     62 CA         43.2542   -0.4283   41.0040 C.3       9 GLC5        0.0000 
     63 CA         46.3300   -3.1405   38.3440 C.3       9 GLC5        0.0000 
     64 CA         43.6633   -2.6540   35.2163 C.3       9 GLC5        0.0000 
     65 CA         44.8153   -3.2265   36.5973 C.3       9 GLC5        0.0000 
     66 CA         43.2050    1.6770   41.7975 C.3       9 GLC5        0.0000 
     67 CA         45.1565    2.8530   37.9027 C.3       9 GLC5        0.0000 
     68 CA         48.1461   -0.0971   34.4757 C.3       9 GLC5        0.0000 
     69 CA         45.2479    0.3984   34.1934 C.3       9 GLC5        0.0000 
     70 CA         46.6475    2.0162   40.3461 C.3       9 GLC5        0.0000 
@<TRIPOS>BOND
@<TRIPOS>SUBSTRUCTURE
     1 SEL1        1 GROUP        1 Z    SEL  0     ROOT SEL Z 0
     2 LYL3        4 GROUP        1 Z    LYL  0     **** LYL Z 2
     3 GLL5        5 GROUP        1 Z    GLL  0     **** GLL Z 4
     4 SEP1       16 GROUP        1 Z    SEP  0     **** SEP Z 7
     5 LYP3       20 GROUP        1 Z    LYP  0     **** LYP Z 9
     6 GLP5       21 GROUP        1 Z    GLP  0     **** GLP Z 11
     7 SEC1       39 GROUP        1 Z    SEC  0     **** SEC Z 14
     8 LYC3       45 GROUP        1 Z    LYC  0     **** LYC Z 16
     9 GLC5       46 GROUP        1 Z    GLC  0     **** GLC Z 18
@<TRIPOS>SET

