3d57_4HY_1_ligand
  -OEChem-08111718373D

 29 30  0     1  0  0  0  0  0999 V2000
   44.6272    1.2592   38.3222 H   0  0  0  0  0  0  0  0  0  0  0  0
   44.3555    3.2074   39.7456 H   0  0  0  0  0  0  0  0  0  0  0  0
   48.2492   -1.2117   35.6956 H   0  0  0  0  0  0  0  0  0  0  0  0
   44.1598   -1.3098   34.7552 H   0  0  0  0  0  0  0  0  0  0  0  0
   45.6352   -1.0359   41.6355 H   0  0  0  0  0  0  0  0  0  0  0  0
   47.4086   -0.7810   33.4592 H   0  0  0  0  0  0  0  0  0  0  0  0
   45.8146   -0.7073   33.1121 H   0  0  0  0  0  0  0  0  0  0  0  0
   44.8158    3.1757   43.3770 H   0  0  0  0  0  0  0  0  0  0  0  0
   44.7800    1.1900   39.3080 C   0  0  0  0  0  0  0  0  0  0  0  0
   44.6200    2.3260   40.1370 C   0  0  0  0  0  0  0  0  0  0  0  0
   47.2970   -1.2380   36.0000 C   0  0  0  0  0  0  0  0  0  0  0  0
   44.8950   -1.2980   35.4330 C   0  0  0  0  0  0  0  0  0  0  0  0
   45.3710   -0.1540   41.2450 C   0  0  0  0  0  0  0  0  0  0  0  0
   46.2090   -1.2550   35.0260 C   0  0  0  0  0  0  0  0  0  0  0  0
   45.1620   -0.0570   39.8930 C   0  0  0  0  0  0  0  0  0  0  0  0
   44.8410    2.1940   41.5330 C   0  0  0  0  0  0  0  0  0  0  0  0
   45.6550   -1.2970   37.8130 C   0  0  0  0  0  0  0  0  0  0  0  0
   46.9890   -1.2590   37.3670 C   0  0  0  0  0  0  0  0  0  0  0  0
   44.5820   -1.3260   36.8420 C   0  0  0  0  0  0  0  0  0  0  0  0
   45.2270    0.9260   42.0730 C   0  0  0  0  0  0  0  0  0  0  0  0
   46.6150   -2.6500   32.8650 C   0  0  0  0  0  0  0  0  0  0  0  0
   46.5260   -1.2370   33.5740 C   0  0  2  0  0  0  0  0  0  0  0  0
   47.2080   -2.6790   31.7540 O   0  5  0  0  0  0  0  0  0  0  0  0
   46.0870   -3.6410   33.4590 O   0  0  0  0  0  0  0  0  0  0  0  0
   44.6690    3.2860   42.3940 O   0  0  0  0  0  0  0  0  0  0  0  0
   45.3350   -1.2520   39.1600 O   0  0  0  0  0  0  0  0  0  0  0  0
   48.5430   -1.3100   38.8270 I   0  0  0  0  0  0  0  0  0  0  0  0
   42.5540   -1.4870   37.5100 I   0  0  0  0  0  0  0  0  0  0  0  0
   45.5920    0.6820   44.0980 I   0  0  0  0  0  0  0  0  0  0  0  0
  1  9  1  0  0  0  0
  2 10  1  0  0  0  0
  3 11  1  0  0  0  0
  4 12  1  0  0  0  0
  5 13  1  0  0  0  0
  6 22  1  0  0  0  0
  7 22  1  0  0  0  0
  8 25  1  0  0  0  0
  9 10  2  0  0  0  0
  9 15  1  0  0  0  0
 10 16  1  0  0  0  0
 11 14  2  0  0  0  0
 11 18  1  0  0  0  0
 12 14  1  0  0  0  0
 12 19  2  0  0  0  0
 13 15  2  0  0  0  0
 13 20  1  0  0  0  0
 14 22  1  0  0  0  0
 15 26  1  0  0  0  0
 16 20  2  0  0  0  0
 16 25  1  0  0  0  0
 17 18  2  0  0  0  0
 17 19  1  0  0  0  0
 17 26  1  0  0  0  0
 18 27  1  0  0  0  0
 19 28  1  0  0  0  0
 20 29  1  0  0  0  0
 21 22  1  0  0  0  0
 21 23  1  0  0  0  0
 21 24  2  0  0  0  0
M  CHG  1  23  -1
M  END
> <scpdb_id>
3d57_1

$$$$
