#    Name: 3749
#    Modification time : Tue Aug  8 20:02:36 2017

@<TRIPOS>MOLECULE
3749
   49     0    12     0     0
SMALL
NO_CHARGES


@<TRIPOS>ATOM
      1 N          65.4660  -19.1620  -24.3510 N.am      1 SEL1        0.0000 
      2 N          65.4720  -18.3330  -26.7530 N.am      1 SEL1        0.0000 
      3 N          67.4440  -19.5920  -25.8300 N.am      1 SEL1        0.0000 
      4 N          63.1200  -20.8090  -27.4680 N.am      1 SEL1        0.0000 
      5 N          65.3890  -20.7870  -26.1740 N.am      1 SEL1        0.0000 
      6 N          58.7340  -27.3060  -24.3180 N.am      1 SEL1        0.0000 
      7 O          58.7060  -25.4630  -22.7830 O.2       2 ALL2        0.0000 
      8 NZ         65.4660  -19.1620  -24.3510 N.4       3 LYL3        0.0000 
      9 NZ         67.4440  -19.5920  -25.8300 N.4       3 LYL3        0.0000 
     10 CA         62.4420  -25.5010  -28.3600 C.3       4 GLL5        0.0000 
     11 CA         62.9230  -26.0250  -26.9250 C.3       4 GLL5        0.0000 
     12 CA         65.3150  -24.0200  -27.3580 C.3       4 GLL5        0.0000 
     13 N          65.7640  -21.9290  -22.6810 N.am      5 SEP1        0.0000 
     14 N          62.5480  -18.7510  -24.7100 N.am      5 SEP1        0.0000 
     15 N          63.3020  -21.4000  -23.8770 N.am      5 SEP1        0.0000 
     16 N          66.6750  -17.0750  -22.6600 N.am      5 SEP1        0.0000 
     17 N          64.6720  -17.3480  -29.3740 N.am      5 SEP1        0.0000 
     18 N          62.6180  -17.5850  -27.2850 N.am      5 SEP1        0.0000 
     19 N          68.1430  -21.3620  -23.9310 N.am      5 SEP1        0.0000 
     20 N          60.8330  -22.1440  -28.2890 N.am      5 SEP1        0.0000 
     21 N          60.8510  -19.3000  -28.5130 N.am      5 SEP1        0.0000 
     22 N          56.5190  -28.6340  -24.4670 N.am      5 SEP1        0.0000 
     23 O          57.2630  -26.2970  -20.4570 O.2       6 ALP2        0.0000 
     24 O          60.3660  -23.6220  -20.8950 O.2       6 ALP2        0.0000 
     25 NZ         66.6750  -17.0750  -22.6600 N.4       7 LYP3        0.0000 
     26 NZ         69.8990  -22.2670  -26.7680 N.4       7 LYP3        0.0000 
     27 CA         59.4320  -23.9500  -31.1610 C.3       8 GLP5        0.0000 
     28 CA         63.5880  -27.0700  -22.9130 C.3       8 GLP5        0.0000 
     29 CA         68.0750  -25.8790  -25.6040 C.3       8 GLP5        0.0000 
     30 CA         63.6120  -29.5280  -27.1270 C.3       8 GLP5        0.0000 
     31 N          65.6150  -20.5455  -23.5160 N.am      9 SEC1        0.0000 
     32 N          64.0070  -18.9565  -24.5305 N.am      9 SEC1        0.0000 
     33 N          64.3840  -20.2810  -24.1140 N.am      9 SEC1        0.0000 
     34 N          66.0705  -18.1185  -23.5055 N.am      9 SEC1        0.0000 
     35 N          65.0720  -17.8405  -28.0635 N.am      9 SEC1        0.0000 
     36 N          64.0450  -17.9590  -27.0190 N.am      9 SEC1        0.0000 
     37 N          67.7935  -20.4770  -24.8805 N.am      9 SEC1        0.0000 
     38 N          61.9765  -21.4765  -27.8785 N.am      9 SEC1        0.0000 
     39 N          61.9855  -20.0545  -27.9905 N.am      9 SEC1        0.0000 
     40 N          64.3455  -21.0935  -25.0255 N.am      9 SEC1        0.0000 
     41 N          57.6265  -27.9700  -24.3925 N.am      9 SEC1        0.0000 
     42 O          57.9845  -25.8800  -21.6200 O.2      10 ALC2        0.0000 
     43 O          59.5360  -24.5425  -21.8390 O.2      10 ALC2        0.0000 
     44 NZ         66.0705  -18.1185  -23.5055 N.4      11 LYC3        0.0000 
     45 NZ         68.6715  -20.9295  -26.2990 N.4      11 LYC3        0.0000 
     46 CA         60.9370  -24.7255  -29.7605 C.3      12 GLC5        0.0000 
     47 CA         63.2555  -26.5475  -24.9190 C.3      12 GLC5        0.0000 
     48 CA         66.5815  -25.2395  -26.6215 C.3      12 GLC5        0.0000 
     49 CA         63.1472  -27.6455  -27.3847 C.3      12 GLC5        0.0000 
@<TRIPOS>BOND
@<TRIPOS>SUBSTRUCTURE
     1 SEL1        1 GROUP        1 Z    SEL  0     ROOT SEL Z 0
     2 ALL2        7 GROUP        1 Z    ALL  0     **** ALL Z 1
     3 LYL3        8 GROUP        1 Z    LYL  0     **** LYL Z 2
     4 GLL5       10 GROUP        1 Z    GLL  0     **** GLL Z 4
     5 SEP1       13 GROUP        1 Z    SEP  0     **** SEP Z 7
     6 ALP2       23 GROUP        1 Z    ALP  0     **** ALP Z 8
     7 LYP3       25 GROUP        1 Z    LYP  0     **** LYP Z 9
     8 GLP5       27 GROUP        1 Z    GLP  0     **** GLP Z 11
     9 SEC1       31 GROUP        1 Z    SEC  0     **** SEC Z 14
    10 ALC2       42 GROUP        1 Z    ALC  0     **** ALC Z 15
    11 LYC3       44 GROUP        1 Z    LYC  0     **** LYC Z 16
    12 GLC5       46 GROUP        1 Z    GLC  0     **** GLC Z 18
@<TRIPOS>SET

