@<TRIPOS>MOLECULE
1in5_ADP_1_ligand
   39    41     1     0     0
SMALL
NO_CHARGES


@<TRIPOS>ATOM
     1 PB          65.9050   -19.4100   -25.7360 P.3          1 ADP600   0.0000
     2 O1B         65.4660   -19.1620   -24.3510 O.co2        1 ADP600   0.0000
     3 O2B         65.4720   -18.3330   -26.7530 O.co2        1 ADP600  -1.0000
     4 O3B         67.4440   -19.5920   -25.8300 O.co2        1 ADP600  -1.0000
     5 PA          64.5030   -21.3590   -27.4350 P.3          1 ADP600   0.0000
     6 O1A         63.1200   -20.8090   -27.4680 O.co2        1 ADP600   0.0000
     7 O2A         65.2710   -21.0810   -28.6470 O.co2        1 ADP600  -1.0000
     8 O3A         65.3890   -20.7870   -26.1740 O.3          1 ADP600   0.0000
     9 O5'         64.4950   -22.9140   -27.1690 O.3          1 ADP600   0.0000
    10 C5'         65.3150   -24.0200   -27.3580 C.3          1 ADP600   0.0000
    11 C4'         64.8610   -25.1800   -27.9200 C.3          1 ADP600   0.0000
    12 O4'         64.2120   -25.7770   -26.8720 O.3          1 ADP600   0.0000
    13 C3'         63.6700   -25.0440   -28.8990 C.3          1 ADP600   0.0000
    14 O3'         64.0600   -26.0460   -29.7850 O.3          1 ADP600   0.0000
    15 C2'         62.4420   -25.5010   -28.3600 C.3          1 ADP600   0.0000
    16 O2'         61.6030   -25.9350   -29.4610 O.3          1 ADP600   0.0000
    17 C1'         62.9230   -26.0250   -26.9250 C.3          1 ADP600   0.0000
    18 N9          62.1080   -25.6180   -25.8850 N.pl3        1 ADP600   0.0000
    19 C8          62.1840   -24.5250   -25.0700 C.2          1 ADP600   0.0000
    20 N7          61.2750   -24.4480   -24.2130 N.2          1 ADP600   0.0000
    21 C5          60.5110   -25.5600   -24.4420 C.ar         1 ADP600   0.0000
    22 C6          59.2940   -26.0990   -23.8260 C.ar         1 ADP600   0.0000
    23 N6          58.7060   -25.4630   -22.7830 N.pl3        1 ADP600   0.0000
    24 N1          58.7340   -27.3060   -24.3180 N.ar         1 ADP600   0.0000
    25 C2          59.3350   -27.9650   -25.3930 C.ar         1 ADP600   0.0000
    26 N3          60.4810   -27.5240   -26.0280 N.ar         1 ADP600   0.0000
    27 C4          61.0090   -26.3080   -25.5230 C.ar         1 ADP600   0.0000
    28 H5'1        65.6626   -24.2665   -26.4533 H            1 ADP600   0.0000
    29 H5'2        66.0722   -23.7100   -27.9329 H            1 ADP600   0.0000
    30 H4'         65.5997   -25.7448   -28.2879 H            1 ADP600   0.0000
    31 H3'         63.6059   -24.1409   -29.3237 H            1 ADP600   0.0000
    32 H5          63.2490   -26.4568   -30.2015 H            1 ADP600   0.0000
    33 H2'         62.0052   -24.6359   -28.1135 H            1 ADP600   0.0000
    34 H7          61.3771   -26.9024   -29.3467 H            1 ADP600   0.0000
    35 H1'         62.8405   -27.0210   -26.9593 H            1 ADP600   0.0000
    36 H9          62.9084   -23.8404   -25.1514 H            1 ADP600   0.0000
    37 H10         57.8764   -25.8399   -22.3709 H            1 ADP600   0.0000
    38 H11         59.1019   -24.6170   -22.4257 H            1 ADP600   0.0000
    39 H12         58.9101   -28.8077   -25.7236 H            1 ADP600   0.0000
@<TRIPOS>BOND
     1    1    2      ar
     2    1    3      ar
     3    1    4      ar
     4    1    8       1
     5    5    6      ar
     6    5    7      ar
     7    5    8       1
     8    5    9       1
     9    9   10       1
    10   10   11       1
    11   11   12       1
    12   11   13       1
    13   12   17       1
    14   13   14       1
    15   13   15       1
    16   15   16       1
    17   15   17       1
    18   17   18       1
    19   18   19       1
    20   18   27       1
    21   19   20       2
    22   20   21       1
    23   21   22      ar
    24   21   27      ar
    25   22   23       1
    26   22   24      ar
    27   24   25      ar
    28   25   26      ar
    29   26   27      ar
    30   25   39       1
    31   23   38       1
    32   23   37       1
    33   10   28       1
    34   10   29       1
    35   11   30       1
    36   13   31       1
    37   14   32       1
    38   15   33       1
    39   16   34       1
    40   17   35       1
    41   19   36       1
@<TRIPOS>SUBSTRUCTURE
     1 ADP600      1 GROUP             4 A     ADP     0 **** ADP A 600
