@<TRIPOS>MOLECULE
2pub_ADE_1_ligand
   15    16     1     0     0
SMALL
NO_CHARGES


@<TRIPOS>ATOM
     1 N9          58.5780     5.9550   -10.1330 N.pl3        1 ADE599   0.0000
     2 C8          58.1260     6.6310   -11.2350 C.2          1 ADE599   0.0000
     3 N7          57.3370     5.9150   -11.9850 N.2          1 ADE599   0.0000
     4 C5          57.2810     4.6750   -11.3680 C.ar         1 ADE599   0.0000
     5 C6          56.5970     3.4820   -11.7120 C.ar         1 ADE599   0.0000
     6 N6          55.7950     3.2780   -12.7550 N.pl3        1 ADE599   0.0000
     7 N1          56.8330     2.4510   -10.8160 N.ar         1 ADE599   0.0000
     8 C2          57.6230     2.5620    -9.7050 C.ar         1 ADE599   0.0000
     9 N3          58.2560     3.6740    -9.3560 N.ar         1 ADE599   0.0000
    10 C4          58.0550     4.6860   -10.2310 C.ar         1 ADE599   0.0000
    11 H1          59.1667     6.3103    -9.4069 H            1 ADE599   0.0000
    12 H2          58.3758     7.5768   -11.4427 H            1 ADE599   0.0000
    13 H3          55.3679     2.3839   -12.8900 H            1 ADE599   0.0000
    14 H4          55.6197     4.0188   -13.4034 H            1 ADE599   0.0000
    15 H5          57.7296     1.7571    -9.1213 H            1 ADE599   0.0000
@<TRIPOS>BOND
     1    1    2       1
     2    1   10       1
     3    2    3       2
     4    3    4       1
     5    4    5      ar
     6    4   10      ar
     7    5    6       1
     8    5    7      ar
     9    7    8      ar
    10    8    9      ar
    11    9   10      ar
    12    1   11       1
    13    2   12       1
    14    6   13       1
    15    6   14       1
    16    8   15       1
@<TRIPOS>SUBSTRUCTURE
     1 ADE599      1 GROUP             4 A     ADE     0 **** ADE A 599
