#    Name: 26638
#    Modification time : Tue Aug  8 19:39:09 2017

@<TRIPOS>MOLECULE
26638
   69     0     6     0     0
SMALL
NO_CHARGES


@<TRIPOS>ATOM
      1 N          57.0810    7.4250   40.5310 N.am      1 SEL1        0.0000 
      2 CA         59.2580    6.7940   38.7300 C.3       2 GLL5        0.0000 
      3 CA         60.2220    6.6360   37.7340 C.3       2 GLL5        0.0000 
      4 CA         64.9360    7.2790   36.9530 C.3       2 GLL5        0.0000 
      5 CA         61.9750   12.8400   35.2590 C.3       2 GLL5        0.0000 
      6 CA         62.2250   11.7790   32.9850 C.3       2 GLL5        0.0000 
      7 CA         64.0560   13.0850   33.9810 C.3       2 GLL5        0.0000 
      8 CA         66.3000   11.5120   33.4590 C.3       2 GLL5        0.0000 
      9 CA         67.0690   11.7170   35.8430 C.3       2 GLL5        0.0000 
     10 CA         59.0970    8.0240   39.3810 C.3       2 GLL5        0.0000 
     11 CA         60.8620    8.9460   38.0410 C.3       2 GLL5        0.0000 
     12 CA         59.9040    9.1060   39.0310 C.3       2 GLL5        0.0000 
     13 CA         65.3410    9.5390   35.9060 C.3       2 GLL5        0.0000 
     14 CA         64.4510    8.5300   36.2680 C.3       2 GLL5        0.0000 
     15 CA         63.4400   10.8670   34.9740 C.3       2 GLL5        0.0000 
     16 CA         65.2130   13.1420   34.9420 C.3       2 GLL5        0.0000 
     17 CA         64.8890   10.7000   35.2810 C.3       2 GLL5        0.0000 
     18 N          53.9890    8.3380   40.5740 N.am      3 SEP1        0.0000 
     19 CA         59.2140    3.1200   38.3290 C.3       4 GLP5        0.0000 
     20 CA         60.6850    3.2950   38.8910 C.3       4 GLP5        0.0000 
     21 CA         62.6040    6.1030   40.2860 C.3       4 GLP5        0.0000 
     22 CA         65.0710    3.3570   36.6100 C.3       4 GLP5        0.0000 
     23 CA         67.7790    5.8270   35.9970 C.3       4 GLP5        0.0000 
     24 CA         58.0860   13.5570   37.3950 C.3       4 GLP5        0.0000 
     25 CA         60.0130   16.1310   34.7080 C.3       4 GLP5        0.0000 
     26 CA         63.6990   11.3200   29.9270 C.3       4 GLP5        0.0000 
     27 CA         58.9180   11.8700   30.4670 C.3       4 GLP5        0.0000 
     28 CA         66.7900   16.3710   33.2300 C.3       4 GLP5        0.0000 
     29 CA         64.9740   13.7170   29.8910 C.3       4 GLP5        0.0000 
     30 CA         60.7680   16.1120   33.5450 C.3       4 GLP5        0.0000 
     31 CA         64.6720    7.6800   32.9290 C.3       4 GLP5        0.0000 
     32 CA         69.3420   10.5760   31.5920 C.3       4 GLP5        0.0000 
     33 CA         68.4870    8.1690   36.4490 C.3       4 GLP5        0.0000 
     34 CA         70.4050   13.4040   34.7150 C.3       4 GLP5        0.0000 
     35 CA         58.1130    4.9690   42.1360 C.3       4 GLP5        0.0000 
     36 CA         55.3850    8.8360   37.7470 C.3       4 GLP5        0.0000 
     37 CA         63.4650   11.3850   38.5880 C.3       4 GLP5        0.0000 
     38 CA         59.2980   12.4000   40.4230 C.3       4 GLP5        0.0000 
     39 CA         67.8230   15.2330   33.1000 C.3       4 GLP5        0.0000 
     40 N          55.5350    7.8815   40.5525 N.am      5 SEC1        0.0000 
     41 CA         59.2360    4.9570   38.5295 C.3       6 GLC5        0.0000 
     42 CA         60.4535    4.9655   38.3125 C.3       6 GLC5        0.0000 
     43 CA         63.7700    6.6910   38.6195 C.3       6 GLC5        0.0000 
     44 CA         65.0035    5.3180   36.7815 C.3       6 GLC5        0.0000 
     45 CA         66.3575    6.5530   36.4750 C.3       6 GLC5        0.0000 
     46 CA         60.0305   13.1985   36.3270 C.3       6 GLC5        0.0000 
     47 CA         60.9940   14.4855   34.9835 C.3       6 GLC5        0.0000 
     48 CA         62.9620   11.5495   31.4560 C.3       6 GLC5        0.0000 
     49 CA         60.5715   11.8245   31.7260 C.3       6 GLC5        0.0000 
     50 CA         65.4230   14.7280   33.6055 C.3       6 GLC5        0.0000 
     51 CA         64.5150   13.4010   31.9360 C.3       6 GLC5        0.0000 
     52 CA         62.4120   14.5985   33.7630 C.3       6 GLC5        0.0000 
     53 CA         64.9995   11.4160   31.6930 C.3       6 GLC5        0.0000 
     54 CA         65.4860    9.5960   33.1940 C.3       6 GLC5        0.0000 
     55 CA         67.8210   11.0440   32.5255 C.3       6 GLC5        0.0000 
     56 CA         67.7780    9.9430   36.1460 C.3       6 GLC5        0.0000 
     57 CA         68.7370   12.5605   35.2790 C.3       6 GLC5        0.0000 
     58 CA         58.6453    6.1890   40.5957 C.3       6 GLC5        0.0000 
     59 CA         57.2812    8.1225   38.4013 C.3       6 GLC5        0.0000 
     60 CA         61.9240   10.2055   38.5620 C.3       6 GLC5        0.0000 
     61 CA         59.8405   10.7130   39.4795 C.3       6 GLC5        0.0000 
     62 CA         66.6915    8.6017   36.2680 C.3       6 GLC5        0.0000 
     63 CA         64.7544    8.2106   34.5755 C.3       6 GLC5        0.0000 
     64 CA         63.0222   11.7767   36.7677 C.3       6 GLC5        0.0000 
     65 CA         64.5040   11.9210   36.7537 C.3       6 GLC5        0.0000 
     66 CA         66.8722   13.6088   33.6446 C.3       6 GLC5        0.0000 
     67 CA         64.1833    8.9801   34.1146 C.3       6 GLC5        0.0000 
     68 CA         61.3425    6.9093   39.2951 C.3       6 GLC5        0.0000 
     69 CA         63.7899   10.5309   37.1227 C.3       6 GLC5        0.0000 
@<TRIPOS>BOND
@<TRIPOS>SUBSTRUCTURE
     1 SEL1        1 GROUP        1 Z    SEL  0     ROOT SEL Z 0
     2 GLL5        2 GROUP        1 Z    GLL  0     **** GLL Z 4
     3 SEP1       18 GROUP        1 Z    SEP  0     **** SEP Z 7
     4 GLP5       19 GROUP        1 Z    GLP  0     **** GLP Z 11
     5 SEC1       40 GROUP        1 Z    SEC  0     **** SEC Z 14
     6 GLC5       41 GROUP        1 Z    GLC  0     **** GLC Z 18
@<TRIPOS>SET

