@<TRIPOS>MOLECULE
3h0a_9RA_1_ligand
   53    55     1     0     0
SMALL
NO_CHARGES


@<TRIPOS>ATOM
     1 O53         57.0810     7.4250    40.5310 O.co2        1 9RA500   0.0000
     2 C51         58.0500     8.2040    40.4470 C.2          1 9RA500   0.0000
     3 O52         58.1550     9.1540    41.2350 O.co2        1 9RA500  -1.0000
     4 C11         59.0970     8.0240    39.3810 C.ar         1 9RA500   0.0000
     5 C10         59.9040     9.1060    39.0310 C.ar         1 9RA500   0.0000
     6 C12         59.2580     6.7940    38.7300 C.ar         1 9RA500   0.0000
     7 C13         60.2220     6.6360    37.7340 C.ar         1 9RA500   0.0000
     8 C14         61.0260     7.7180    37.3990 C.ar         1 9RA500   0.0000
     9 C9          60.8620     8.9460    38.0410 C.ar         1 9RA500   0.0000
    10 C47         62.0530     7.5640    36.3160 C.2          1 9RA500   0.0000
    11 C48         62.0740     6.4320    35.6440 C.2          1 9RA500   0.0000
    12 C4          63.0070     8.6860    35.9780 C.ar         1 9RA500   0.0000
    13 C3          64.4510     8.5300    36.2680 C.ar         1 9RA500   0.0000
    14 C43         64.9360     7.2790    36.9530 C.3          1 9RA500   0.0000
    15 C2          65.3410     9.5390    35.9060 C.ar         1 9RA500   0.0000
    16 C5          62.5600     9.8480    35.3410 C.ar         1 9RA500   0.0000
    17 C6          63.4400    10.8670    34.9740 C.ar         1 9RA500   0.0000
    18 C19         62.9280    12.1270    34.2980 C.3          1 9RA500   0.0000
    19 C27         61.9750    12.8400    35.2590 C.3          1 9RA500   0.0000
    20 C31         62.2250    11.7790    32.9850 C.3          1 9RA500   0.0000
    21 C20         64.0560    13.0850    33.9810 C.3          1 9RA500   0.0000
    22 C21         65.2130    13.1420    34.9420 C.3          1 9RA500   0.0000
    23 C22         65.8730    11.7720    34.8970 C.3          1 9RA500   0.0000
    24 C1          64.8890    10.7000    35.2810 C.ar         1 9RA500   0.0000
    25 C39         66.3000    11.5120    33.4590 C.3          1 9RA500   0.0000
    26 C35         67.0690    11.7170    35.8430 C.3          1 9RA500   0.0000
    27 H1          59.7931     9.9880    39.4890 H            1 9RA500   0.0000
    28 H2          58.6757     6.0210    38.9819 H            1 9RA500   0.0000
    29 H3          60.3324     5.7578    37.2687 H            1 9RA500   0.0000
    30 H4          61.4417     9.7194    37.7844 H            1 9RA500   0.0000
    31 H5          62.7452     6.2954    34.9155 H            1 9RA500   0.0000
    32 H6          61.4187     5.7088    35.8621 H            1 9RA500   0.0000
    33 H7          65.9273     7.3288    37.0752 H            1 9RA500   0.0000
    34 H8          64.4939     7.1952    37.8460 H            1 9RA500   0.0000
    35 H9          64.7088     6.4826    36.3925 H            1 9RA500   0.0000
    36 H10         66.3164     9.4289    36.0970 H            1 9RA500   0.0000
    37 H11         61.5852     9.9513    35.1435 H            1 9RA500   0.0000
    38 H12         61.6286    13.6732    34.8279 H            1 9RA500   0.0000
    39 H13         61.2094    12.2354    35.4790 H            1 9RA500   0.0000
    40 H14         62.4640    13.0775    36.0983 H            1 9RA500   0.0000
    41 H15         61.8937    12.6173    32.5519 H            1 9RA500   0.0000
    42 H16         62.8694    11.3200    32.3734 H            1 9RA500   0.0000
    43 H17         61.4523    11.1722    33.1713 H            1 9RA500   0.0000
    44 H18         63.6633    14.0033    33.9308 H            1 9RA500   0.0000
    45 H19         64.4226    12.8299    33.0863 H            1 9RA500   0.0000
    46 H20         64.8860    13.3387    35.8663 H            1 9RA500   0.0000
    47 H21         65.8623    13.8486    34.6607 H            1 9RA500   0.0000
    48 H22         66.7385    10.6153    33.3984 H            1 9RA500   0.0000
    49 H23         65.4964    11.5309    32.8641 H            1 9RA500   0.0000
    50 H24         66.9455    12.2190    33.1699 H            1 9RA500   0.0000
    51 H25         67.4878    10.8100    35.7985 H            1 9RA500   0.0000
    52 H26         67.7399    12.4075    35.5726 H            1 9RA500   0.0000
    53 H27         66.7632    11.8974    36.7778 H            1 9RA500   0.0000
@<TRIPOS>BOND
     1    1    2      ar
     2    2    3      ar
     3    2    4       1
     4    4    5      ar
     5    4    6      ar
     6    5    9      ar
     7    6    7      ar
     8    7    8      ar
     9    8    9      ar
    10    8   10       1
    11   10   11       2
    12   10   12       1
    13   12   13      ar
    14   12   16      ar
    15   13   14       1
    16   13   15      ar
    17   15   24      ar
    18   16   17      ar
    19   17   18       1
    20   17   24      ar
    21   18   19       1
    22   18   20       1
    23   18   21       1
    24   21   22       1
    25   22   23       1
    26   23   24       1
    27   23   25       1
    28   23   26       1
    29   26   53       1
    30    5   27       1
    31    6   28       1
    32    7   29       1
    33    9   30       1
    34   11   31       1
    35   11   32       1
    36   14   33       1
    37   14   34       1
    38   14   35       1
    39   15   36       1
    40   16   37       1
    41   19   38       1
    42   19   39       1
    43   19   40       1
    44   20   41       1
    45   20   42       1
    46   20   43       1
    47   21   44       1
    48   21   45       1
    49   22   46       1
    50   22   47       1
    51   25   48       1
    52   25   49       1
    53   25   50       1
    54   26   51       1
    55   26   52       1
@<TRIPOS>SUBSTRUCTURE
     1 9RA500      1 GROUP             4 A     9RA     0 **** 9RA A 500
