#    Name: 2854
#    Modification time : Tue Aug  8 21:54:36 2017

@<TRIPOS>MOLECULE
2854
   43     0     9     0     0
SMALL
NO_CHARGES


@<TRIPOS>ATOM
      1 N          10.3630    8.3090   33.0220 N.am      1 SEL1        0.0000 
      2 O           1.4060    4.1220   26.5880 O.2       2 ALL2        0.0000 
      3 O          10.3630    8.3090   33.0220 O.2       2 ALL2        0.0000 
      4 CA          4.6920    3.1760   28.0630 C.3       3 GLL5        0.0000 
      5 CA          3.4960    3.0880   27.3360 C.3       3 GLL5        0.0000 
      6 CA          4.6800    6.7120   29.6390 C.3       3 GLL5        0.0000 
      7 CA          8.0140    8.2380   32.4550 C.3       3 GLL5        0.0000 
      8 CA          2.9170    5.3430   27.9970 C.3       3 GLL5        0.0000 
      9 CA          6.9190    7.7040   31.7660 C.3       3 GLL5        0.0000 
     10 CA          9.5180    6.6740   31.4940 C.3       3 GLL5        0.0000 
     11 N          11.9520    7.2150   35.4340 N.am      4 SEP1        0.0000 
     12 N          13.0920    9.0850   32.5500 N.am      4 SEP1        0.0000 
     13 O           0.4810    1.5040   26.1910 O.2       5 ALP2        0.0000 
     14 O           9.6400   10.7030   33.4720 O.2       5 ALP2        0.0000 
     15 O          11.7060   11.4500   33.6090 O.2       5 ALP2        0.0000 
     16 CA          6.5390   -0.7900   27.4980 C.3       6 GLP5        0.0000 
     17 CA          1.5990    0.9100   24.0030 C.3       6 GLP5        0.0000 
     18 CA          2.9120    6.3020   33.4200 C.3       6 GLP5        0.0000 
     19 CA          5.6020   10.9270   30.1690 C.3       6 GLP5        0.0000 
     20 CA          7.5480    9.4500   36.5380 C.3       6 GLP5        0.0000 
     21 CA          9.0320   10.3410   28.7610 C.3       6 GLP5        0.0000 
     22 CA         -1.1410    5.4030   28.9520 C.3       6 GLP5        0.0000 
     23 CA          0.8510    7.1930   25.9810 C.3       6 GLP5        0.0000 
     24 CA         10.3080    2.9120   32.6760 C.3       6 GLP5        0.0000 
     25 CA         11.0240    8.8610   29.1300 C.3       6 GLP5        0.0000 
     26 CA          4.2910    0.3440   29.8170 C.3       6 GLP5        0.0000 
     27 N          11.1575    7.7620   34.2280 N.am      7 SEC1        0.0000 
     28 N          11.7275    8.6970   32.7860 N.am      7 SEC1        0.0000 
     29 O           0.9435    2.8130   26.3895 O.2       8 ALC2        0.0000 
     30 O          10.0015    9.5060   33.2470 O.2       8 ALC2        0.0000 
     31 O          11.0345    9.8795   33.3155 O.2       8 ALC2        0.0000 
     32 CA          5.6155    1.1930   27.7805 C.3       9 GLC5        0.0000 
     33 CA          2.5475    1.9990   25.6695 C.3       9 GLC5        0.0000 
     34 CA          3.7960    6.5070   31.5295 C.3       9 GLC5        0.0000 
     35 CA          5.1410    8.8195   29.9040 C.3       9 GLC5        0.0000 
     36 CA          7.7810    8.8440   34.4965 C.3       9 GLC5        0.0000 
     37 CA          8.5230    9.2895   30.6080 C.3       9 GLC5        0.0000 
     38 CA          0.8100    5.0800   28.3015 C.3       9 GLC5        0.0000 
     39 CA          1.8060    5.9750   26.8160 C.3       9 GLC5        0.0000 
     40 CA          6.5343    9.4490   31.1397 C.3       9 GLC5        0.0000 
     41 CA          9.6480    4.6550   31.9135 C.3       9 GLC5        0.0000 
     42 CA          9.9787    7.7645   30.2447 C.3       9 GLC5        0.0000 
     43 CA          4.3811    1.8931   28.9341 C.3       9 GLC5        0.0000 
@<TRIPOS>BOND
@<TRIPOS>SUBSTRUCTURE
     1 SEL1        1 GROUP        1 Z    SEL  0     ROOT SEL Z 0
     2 ALL2        2 GROUP        1 Z    ALL  0     **** ALL Z 1
     3 GLL5        4 GROUP        1 Z    GLL  0     **** GLL Z 4
     4 SEP1       11 GROUP        1 Z    SEP  0     **** SEP Z 7
     5 ALP2       13 GROUP        1 Z    ALP  0     **** ALP Z 8
     6 GLP5       16 GROUP        1 Z    GLP  0     **** GLP Z 11
     7 SEC1       27 GROUP        1 Z    SEC  0     **** SEC Z 14
     8 ALC2       29 GROUP        1 Z    ALC  0     **** ALC Z 15
     9 GLC5       32 GROUP        1 Z    GLC  0     **** GLC Z 18
@<TRIPOS>SET

