1gwq_ZTW_1_ligand
  -OEChem-08111718373D

 27 29  0     0  0  0  0  0  0999 V2000
    5.3192    2.3975   28.0868 H   0  0  0  0  0  0  0  0  0  0  0  0
    6.0035    8.0958   31.8572 H   0  0  0  0  0  0  0  0  0  0  0  0
    8.6224    5.3526   30.1908 H   0  0  0  0  0  0  0  0  0  0  0  0
    3.2773    2.2492   26.8373 H   0  0  0  0  0  0  0  0  0  0  0  0
    7.8563    9.0099   33.0709 H   0  0  0  0  0  0  0  0  0  0  0  0
   10.4378    6.2960   31.3891 H   0  0  0  0  0  0  0  0  0  0  0  0
    6.9281    4.0565   29.7065 H   0  0  0  0  0  0  0  0  0  0  0  0
    2.2883    6.1203   27.9751 H   0  0  0  0  0  0  0  0  0  0  0  0
   10.2095    9.0830   33.6363 H   0  0  0  0  0  0  0  0  0  0  0  0
    1.1622    3.2976   26.0771 H   0  0  0  0  0  0  0  0  0  0  0  0
    4.6920    3.1760   28.0630 C   0  0  0  0  0  0  0  0  0  0  0  0
    6.9190    7.7040   31.7660 C   0  0  0  0  0  0  0  0  0  0  0  0
    8.4580    6.1220   30.8080 C   0  0  0  0  0  0  0  0  0  0  0  0
    3.4960    3.0880   27.3360 C   0  0  0  0  0  0  0  0  0  0  0  0
    8.0140    8.2380   32.4550 C   0  0  0  0  0  0  0  0  0  0  0  0
    9.5180    6.6740   31.4940 C   0  0  0  0  0  0  0  0  0  0  0  0
    6.1590    4.6790   29.5620 C   0  0  0  0  0  0  0  0  0  0  0  0
    2.9170    5.3430   27.9970 C   0  0  0  0  0  0  0  0  0  0  0  0
    5.0050    4.3290   28.7430 C   0  0  0  0  0  0  0  0  0  0  0  0
    7.1580    6.6140   30.9560 C   0  0  0  0  0  0  0  0  0  0  0  0
    9.3000    7.7540   32.3280 C   0  0  0  0  0  0  0  0  0  0  0  0
    2.6050    4.1710   27.3050 C   0  0  0  0  0  0  0  0  0  0  0  0
    4.0930    5.4260   28.7100 C   0  0  0  0  0  0  0  0  0  0  0  0
    6.1030    5.9600   30.1310 C   0  0  0  0  0  0  0  0  0  0  0  0
   10.3630    8.3090   33.0220 O   0  0  0  0  0  0  0  0  0  0  0  0
    1.4060    4.1220   26.5880 O   0  0  0  0  0  0  0  0  0  0  0  0
    4.6800    6.7120   29.6390 S   0  0  0  0  0  0  0  0  0  0  0  0
  1 11  1  0  0  0  0
  2 12  1  0  0  0  0
  3 13  1  0  0  0  0
  4 14  1  0  0  0  0
  5 15  1  0  0  0  0
  6 16  1  0  0  0  0
  7 17  1  0  0  0  0
  8 18  1  0  0  0  0
  9 25  1  0  0  0  0
 10 26  1  0  0  0  0
 11 14  2  0  0  0  0
 11 19  1  0  0  0  0
 12 15  1  0  0  0  0
 12 20  2  0  0  0  0
 13 16  2  0  0  0  0
 13 20  1  0  0  0  0
 14 22  1  0  0  0  0
 15 21  2  0  0  0  0
 16 21  1  0  0  0  0
 17 19  1  0  0  0  0
 17 24  2  0  0  0  0
 18 22  2  0  0  0  0
 18 23  1  0  0  0  0
 19 23  2  0  0  0  0
 20 24  1  0  0  0  0
 21 25  1  0  0  0  0
 22 26  1  0  0  0  0
 23 27  1  0  0  0  0
 24 27  1  0  0  0  0
M  END
> <scpdb_id>
1gwq_1

$$$$
