@<TRIPOS>MOLECULE
1gwq_ZTW_1_ligand
   27    29     1     0     0
SMALL
NO_CHARGES


@<TRIPOS>ATOM
     1 C1           4.6920     3.1760    28.0630 C.ar         1 ZTW600   0.0000
     2 C2           3.4960     3.0880    27.3360 C.ar         1 ZTW600   0.0000
     3 C3           2.6050     4.1710    27.3050 C.ar         1 ZTW600   0.0000
     4 O3           1.4060     4.1220    26.5880 O.3          1 ZTW600   0.0000
     5 C4           2.9170     5.3430    27.9970 C.ar         1 ZTW600   0.0000
     6 C5           4.0930     5.4260    28.7100 C.ar         1 ZTW600   0.0000
     7 S6           4.6800     6.7120    29.6390 S.3          1 ZTW600   0.0000
     8 C7           6.1030     5.9600    30.1310 C.2          1 ZTW600   0.0000
     9 C8           7.1580     6.6140    30.9560 C.ar         1 ZTW600   0.0000
    10 C9           6.9190     7.7040    31.7660 C.ar         1 ZTW600   0.0000
    11 C10          8.0140     8.2380    32.4550 C.ar         1 ZTW600   0.0000
    12 C11          9.3000     7.7540    32.3280 C.ar         1 ZTW600   0.0000
    13 O11         10.3630     8.3090    33.0220 O.3          1 ZTW600   0.0000
    14 C12          9.5180     6.6740    31.4940 C.ar         1 ZTW600   0.0000
    15 C13          8.4580     6.1220    30.8080 C.ar         1 ZTW600   0.0000
    16 C14          5.0050     4.3290    28.7430 C.ar         1 ZTW600   0.0000
    17 C15          6.1590     4.6790    29.5620 C.2          1 ZTW600   0.0000
    18 H1           5.3192     2.3975    28.0868 H            1 ZTW600   0.0000
    19 H2           3.2773     2.2492    26.8373 H            1 ZTW600   0.0000
    20 H3           1.1622     3.2976    26.0771 H            1 ZTW600   0.0000
    21 H4           2.2883     6.1203    27.9751 H            1 ZTW600   0.0000
    22 H5           6.0035     8.0958    31.8572 H            1 ZTW600   0.0000
    23 H6           7.8563     9.0099    33.0709 H            1 ZTW600   0.0000
    24 H7          10.2095     9.0830    33.6363 H            1 ZTW600   0.0000
    25 H8          10.4378     6.2960    31.3891 H            1 ZTW600   0.0000
    26 H9           8.6224     5.3526    30.1908 H            1 ZTW600   0.0000
    27 H10          6.9281     4.0565    29.7065 H            1 ZTW600   0.0000
@<TRIPOS>BOND
     1    1    2      ar
     2    1   16      ar
     3    2    3      ar
     4    3    4       1
     5    3    5      ar
     6    5    6      ar
     7    6    7       1
     8    6   16      ar
     9    7    8       1
    10    8    9       1
    11    8   17       2
    12    9   10      ar
    13    9   15      ar
    14   10   11      ar
    15   11   12      ar
    16   12   13       1
    17   12   14      ar
    18   14   15      ar
    19   16   17       1
    20    1   18       1
    21    2   19       1
    22    4   20       1
    23    5   21       1
    24   10   22       1
    25   11   23       1
    26   13   24       1
    27   14   25       1
    28   15   26       1
    29   17   27       1
@<TRIPOS>SUBSTRUCTURE
     1 ZTW600      1 GROUP             4 A     ZTW     0 **** ZTW A 600
