#    Name: 28007
#    Modification time : Wed Aug  9 00:29:08 2017

@<TRIPOS>MOLECULE
28007
   75     0    12     0     0
SMALL
NO_CHARGES


@<TRIPOS>ATOM
      1 N         -28.6350   11.5040   43.4400 N.am      1 SEL1        0.0000 
      2 O         -28.2400   13.5970   44.0720 O.2       2 ALL2        0.0000 
      3 CA        -31.5820   15.0480   41.7640 C.3       3 GLL5        0.0000 
      4 CA        -31.4760   12.8060   45.4350 C.3       3 GLL5        0.0000 
      5 CA        -29.8040   18.2660   39.6550 C.3       3 GLL5        0.0000 
      6 CA        -33.2980   14.3540   42.1440 C.3       3 GLL5        0.0000 
      7 CA        -26.0970   18.0120   37.4140 C.3       3 GLL5        0.0000 
      8 CA        -28.0290   10.8200   47.8100 C.3       3 GLL5        0.0000 
      9 CA        -29.1940   14.7830   42.1230 C.3       3 GLL5        0.0000 
     10 CA        -27.7750   11.2580   46.5020 C.3       3 GLL5        0.0000 
     11 CA        -30.3350   11.5730   47.6720 C.3       3 GLL5        0.0000 
     12 CA        -30.1340   12.0230   46.3610 C.3       3 GLL5        0.0000 
     13 CA        -24.8260   16.4930   40.7650 C.3       3 GLL5        0.0000 
     14 CA        -23.5190   16.9610   40.7430 C.3       3 GLL5        0.0000 
     15 CA        -23.0550   17.7410   39.6770 C.3       3 GLL5        0.0000 
     16 CZ        -30.3040   15.5120   41.5250 C.ar      4 PHL6        0.0000 
     17 N         -30.0560    8.8820   42.9920 N.am      5 SEP1        0.0000 
     18 N         -26.3280   10.2530   42.4680 N.am      5 SEP1        0.0000 
     19 O         -28.1240   15.6180   45.9530 O.2       6 ALP2        0.0000 
     20 CA        -34.7970   17.2810   43.9180 C.3       7 GLP5        0.0000 
     21 CA        -31.8960   10.2700   42.3880 C.3       7 GLP5        0.0000 
     22 CA        -34.5570   13.7640   47.1710 C.3       7 GLP5        0.0000 
     23 CA        -31.2090   16.6620   44.9900 C.3       7 GLP5        0.0000 
     24 CA        -30.5580   15.0220   48.4800 C.3       7 GLP5        0.0000 
     25 CA        -33.3400    9.4480   45.5330 C.3       7 GLP5        0.0000 
     26 CA        -28.5130   22.3370   40.0790 C.3       7 GLP5        0.0000 
     27 CA        -28.9120   19.3200   35.5330 C.3       7 GLP5        0.0000 
     28 CA        -31.2080   18.4850   43.4430 C.3       7 GLP5        0.0000 
     29 CA        -31.4490   12.4070   39.2750 C.3       7 GLP5        0.0000 
     30 CA        -33.1290   10.4320   41.7510 C.3       7 GLP5        0.0000 
     31 CA        -36.0240   13.2840   39.4860 C.3       7 GLP5        0.0000 
     32 CA        -32.5770   16.5660   44.8790 C.3       7 GLP5        0.0000 
     33 CA        -26.3730   21.0050   40.2050 C.3       7 GLP5        0.0000 
     34 CA        -26.7980    7.8910   46.7440 C.3       7 GLP5        0.0000 
     35 CA        -28.9940   12.4250   38.7350 C.3       7 GLP5        0.0000 
     36 CA        -30.2730   15.8240   36.4970 C.3       7 GLP5        0.0000 
     37 CA        -24.4090   12.3530   47.5640 C.3       7 GLP5        0.0000 
     38 CA        -33.3170   11.4270   49.8150 C.3       7 GLP5        0.0000 
     39 CA        -25.8030   18.0110   44.2620 C.3       7 GLP5        0.0000 
     40 CA        -20.0080   16.0430   42.3740 C.3       7 GLP5        0.0000 
     41 CA        -23.8350   13.0920   40.0940 C.3       7 GLP5        0.0000 
     42 CA        -20.2150   19.5510   38.0010 C.3       7 GLP5        0.0000 
     43 CA        -25.1000   21.7600   36.8550 C.3       7 GLP5        0.0000 
     44 CZ        -31.9027   17.5245   44.1640 C.ar      8 PHP6        0.0000 
     45 N         -29.3455   10.1930   43.2160 N.am      9 SEC1        0.0000 
     46 N         -27.4815   10.8785   42.9540 N.am      9 SEC1        0.0000 
     47 O         -28.1820   14.6075   45.0125 O.2      10 ALC2        0.0000 
     48 CA        -33.1895   16.1645   42.8410 C.3      11 GLC5        0.0000 
     49 CA        -31.6860   11.5380   43.9115 C.3      11 GLC5        0.0000 
     50 CA        -33.0165   13.2850   46.3030 C.3      11 GLC5        0.0000 
     51 CA        -31.3425   14.7340   45.2125 C.3      11 GLC5        0.0000 
     52 CA        -31.0170   13.9140   46.9575 C.3      11 GLC5        0.0000 
     53 CA        -32.4080   11.1270   45.4840 C.3      11 GLC5        0.0000 
     54 CA        -29.1585   20.3015   39.8670 C.3      11 GLC5        0.0000 
     55 CA        -29.3580   18.7930   37.5940 C.3      11 GLC5        0.0000 
     56 CA        -30.5060   18.3755   41.5490 C.3      11 GLC5        0.0000 
     57 CA        -32.3735   13.3805   40.7095 C.3      11 GLC5        0.0000 
     58 CA        -33.2135   12.3930   41.9475 C.3      11 GLC5        0.0000 
     59 CA        -34.6610   13.8190   40.8150 C.3      11 GLC5        0.0000 
     60 CA        -32.9375   15.4600   43.5115 C.3      11 GLC5        0.0000 
     61 CA        -26.2350   19.5085   38.8095 C.3      11 GLC5        0.0000 
     62 CA        -27.5045   18.6660   36.4735 C.3      11 GLC5        0.0000 
     63 CA        -27.4135    9.3555   47.2770 C.3      11 GLC5        0.0000 
     64 CA        -29.0420   13.9040   40.2188 C.3      11 GLC5        0.0000 
     65 CA        -30.1232   16.6552   38.3360 C.3      11 GLC5        0.0000 
     66 CA        -31.2246   13.6981   40.5595 C.3      11 GLC5        0.0000 
     67 CA        -26.1555   11.6960   47.3600 C.3      11 GLC5        0.0000 
     68 CA        -31.5645   11.3502   48.9217 C.3      11 GLC5        0.0000 
     69 CA        -31.7873   10.6230   46.2747 C.3      11 GLC5        0.0000 
     70 CA        -24.9878   17.3690   42.5080 C.3      11 GLC5        0.0000 
     71 CA        -21.6475   16.6970   41.2920 C.3      11 GLC5        0.0000 
     72 CA        -24.1109   14.9474   40.2916 C.3      11 GLC5        0.0000 
     73 CA        -21.8412   18.7315   38.5695 C.3      11 GLC5        0.0000 
     74 CA        -25.2096   19.8488   37.4280 C.3      11 GLC5        0.0000 
     75 CZ        -31.1033   16.5183   42.8445 C.ar     12 PHC6        0.0000 
@<TRIPOS>BOND
@<TRIPOS>SUBSTRUCTURE
     1 SEL1        1 GROUP        1 Z    SEL  0     ROOT SEL Z 0
     2 ALL2        2 GROUP        1 Z    ALL  0     **** ALL Z 1
     3 GLL5        3 GROUP        1 Z    GLL  0     **** GLL Z 4
     4 PHL6       16 GROUP        1 Z    PHL  0     **** PHL Z 6
     5 SEP1       17 GROUP        1 Z    SEP  0     **** SEP Z 7
     6 ALP2       19 GROUP        1 Z    ALP  0     **** ALP Z 8
     7 GLP5       20 GROUP        1 Z    GLP  0     **** GLP Z 11
     8 PHP6       44 GROUP        1 Z    PHP  0     **** PHP Z 13
     9 SEC1       45 GROUP        1 Z    SEC  0     **** SEC Z 14
    10 ALC2       47 GROUP        1 Z    ALC  0     **** ALC Z 15
    11 GLC5       48 GROUP        1 Z    GLC  0     **** GLC Z 18
    12 PHC6       75 GROUP        1 Z    PHC  0     **** PHC Z 20
@<TRIPOS>SET

