2zoz_ET_1_ligand
  -OEChem-08111718373D

 44 47  0     1  0  0  0  0  0999 V2000
   44.7849   38.6320   47.8908 H   0  0  0  0  0  0  0  0  0  0  0  0
   46.4390   39.6657   46.4763 H   0  0  0  0  0  0  0  0  0  0  0  0
   43.0426   37.2736   46.9301 H   0  0  0  0  0  0  0  0  0  0  0  0
   46.1358   35.1604   39.1277 H   0  0  0  0  0  0  0  0  0  0  0  0
   44.8372   36.2566   37.9370 H   0  0  0  0  0  0  0  0  0  0  0  0
   46.3800   39.3432   44.0900 H   0  0  0  0  0  0  0  0  0  0  0  0
   42.9617   36.9313   44.5512 H   0  0  0  0  0  0  0  0  0  0  0  0
   47.5904   33.9316   40.5596 H   0  0  0  0  0  0  0  0  0  0  0  0
   43.3394   37.5454   36.6104 H   0  0  0  0  0  0  0  0  0  0  0  0
   46.3744   36.1738   43.8517 H   0  0  0  0  0  0  0  0  0  0  0  0
   42.1988   39.7783   39.9309 H   0  0  0  0  0  0  0  0  0  0  0  0
   43.0868   41.7538   42.4876 H   0  0  0  0  0  0  0  0  0  0  0  0
   44.5291   40.9929   42.5741 H   0  0  0  0  0  0  0  0  0  0  0  0
   43.7817   41.1647   41.1324 H   0  0  0  0  0  0  0  0  0  0  0  0
   42.7793   39.5112   43.3046 H   0  0  0  0  0  0  0  0  0  0  0  0
   42.0319   39.6830   41.8629 H   0  0  0  0  0  0  0  0  0  0  0  0
   48.5194   33.5032   42.7766 H   0  0  0  0  0  0  0  0  0  0  0  0
   48.0019   34.4480   44.1329 H   0  0  0  0  0  0  0  0  0  0  0  0
   41.2275   40.2454   37.7953 H   0  0  0  0  0  0  0  0  0  0  0  0
   41.6951   39.3266   36.4035 H   0  0  0  0  0  0  0  0  0  0  0  0
   44.7490   38.4940   46.9010 C   0  0  0  0  0  0  0  0  0  0  0  0
   45.7220   39.1000   46.0690 C   0  0  0  0  0  0  0  0  0  0  0  0
   43.7300   37.6970   46.3400 C   0  0  0  0  0  0  0  0  0  0  0  0
   46.1760   35.3820   40.1020 C   0  0  0  0  0  0  0  0  0  0  0  0
   44.2960   36.9810   38.3640 C   0  0  0  0  0  0  0  0  0  0  0  0
   45.6890   38.9130   44.6710 C   0  0  0  0  0  0  0  0  0  0  0  0
   43.6830   37.4990   44.9480 C   0  0  0  0  0  0  0  0  0  0  0  0
   47.0250   34.6640   40.9390 C   0  0  0  0  0  0  0  0  0  0  0  0
   43.4220   37.7340   37.5890 C   0  0  0  0  0  0  0  0  0  0  0  0
   46.3160   35.9770   42.8730 C   0  0  0  0  0  0  0  0  0  0  0  0
   42.7510   39.0440   39.5360 C   0  0  0  0  0  0  0  0  0  0  0  0
   45.3600   36.4350   40.6250 C   0  0  0  0  0  0  0  0  0  0  0  0
   44.4300   37.2320   39.7700 C   0  0  0  0  0  0  0  0  0  0  0  0
   45.4300   36.7430   42.0460 C   0  0  0  0  0  0  0  0  0  0  0  0
   44.6660   38.1080   44.0910 C   0  0  0  0  0  0  0  0  0  0  0  0
   43.6450   38.2870   40.3890 C   0  0  0  0  0  0  0  0  0  0  0  0
   47.0970   34.9600   42.3250 C   0  0  0  0  0  0  0  0  0  0  0  0
   42.6480   38.7650   38.1720 C   0  0  0  0  0  0  0  0  0  0  0  0
   44.5790   37.8420   42.5970 C   0  0  0  0  0  0  0  0  0  0  0  0
   43.6430   41.0130   42.1110 C   0  0  0  0  0  0  0  0  0  0  0  0
   42.9180   39.6630   42.3260 C   0  0  1  0  0  0  0  0  0  0  0  0
   43.7510   38.5540   41.7620 N   0  3  0  0  0  0  0  0  0  0  0  0
   47.9540   34.2350   43.1570 N   0  0  0  0  0  0  0  0  0  0  0  0
   41.7740   39.5170   37.3820 N   0  0  0  0  0  0  0  0  0  0  0  0
  1 21  1  0  0  0  0
  2 22  1  0  0  0  0
  3 23  1  0  0  0  0
  4 24  1  0  0  0  0
  5 25  1  0  0  0  0
  6 26  1  0  0  0  0
  7 27  1  0  0  0  0
  8 28  1  0  0  0  0
  9 29  1  0  0  0  0
 10 30  1  0  0  0  0
 11 31  1  0  0  0  0
 12 40  1  0  0  0  0
 13 40  1  0  0  0  0
 14 40  1  0  0  0  0
 15 41  1  0  0  0  0
 16 41  1  0  0  0  0
 17 43  1  0  0  0  0
 18 43  1  0  0  0  0
 19 44  1  0  0  0  0
 20 44  1  0  0  0  0
 21 22  2  0  0  0  0
 21 23  1  0  0  0  0
 22 26  1  0  0  0  0
 23 27  2  0  0  0  0
 24 28  2  0  0  0  0
 24 32  1  0  0  0  0
 25 29  2  0  0  0  0
 25 33  1  0  0  0  0
 26 35  2  0  0  0  0
 27 35  1  0  0  0  0
 28 37  1  0  0  0  0
 29 38  1  0  0  0  0
 30 34  1  0  0  0  0
 30 37  2  0  0  0  0
 31 36  1  0  0  0  0
 31 38  2  0  0  0  0
 32 33  1  0  0  0  0
 32 34  2  0  0  0  0
 33 36  2  0  0  0  0
 34 39  1  0  0  0  0
 35 39  1  0  0  0  0
 36 42  1  0  0  0  0
 37 43  1  0  0  0  0
 38 44  1  0  0  0  0
 39 42  2  0  0  0  0
 40 41  1  0  0  0  0
 41 42  1  0  0  0  0
M  CHG  1  42   1
M  END
> <scpdb_id>
2zoz_1

$$$$
