#    Name: 28595
#    Modification time : Wed Aug  9 01:00:52 2017

@<TRIPOS>MOLECULE
28595
   35     0     9     0     0
SMALL
NO_CHARGES


@<TRIPOS>ATOM
      1 N          29.4220  -13.7690    9.7750 N.am      1 SEL1        0.0000 
      2 N          29.7060  -15.0820    7.6190 N.am      1 SEL1        0.0000 
      3 N          27.5280  -18.6750   10.6600 N.am      1 SEL1        0.0000 
      4 O          27.5280  -18.6750   10.6600 O.2       2 ALL2        0.0000 
      5 O          25.1110  -15.8540   17.5740 O.2       2 ALL2        0.0000 
      6 CA         30.9280  -16.0170   11.1400 C.3       3 GLL5        0.0000 
      7 CA         28.2580  -17.9180   12.7900 C.3       3 GLL5        0.0000 
      8 CA         29.8320  -17.0400   11.3390 C.3       3 GLL5        0.0000 
      9 CA         28.5000  -16.4430   10.9720 C.3       3 GLL5        0.0000 
     10 N          28.6980  -11.2480    8.9200 N.am      4 SEP1        0.0000 
     11 N          31.5400  -12.1900   11.0140 N.am      4 SEP1        0.0000 
     12 N          29.1060  -12.8060   12.5800 N.am      4 SEP1        0.0000 
     13 N          31.1070  -16.2400    5.5090 N.am      4 SEP1        0.0000 
     14 N          28.7490  -19.3550    8.1240 N.am      4 SEP1        0.0000 
     15 O          24.1750  -17.9390   10.3720 O.2       5 ALP2        0.0000 
     16 O          25.5310  -13.1000   17.3680 O.2       5 ALP2        0.0000 
     17 O          22.8150  -16.2220   19.3140 O.2       5 ALP2        0.0000 
     18 CA         34.5420  -17.0310    9.5240 C.3       6 GLP5        0.0000 
     19 CA         31.7600  -14.9180   15.1000 C.3       6 GLP5        0.0000 
     20 CA         30.0550  -18.1100   16.2300 C.3       6 GLP5        0.0000 
     21 CA         32.4170  -19.8340   12.4610 C.3       6 GLP5        0.0000 
     22 CA         25.7750  -13.9760   11.5340 C.3       6 GLP5        0.0000 
     23 N          29.0600  -12.5085    9.3475 N.am      7 SEC1        0.0000 
     24 N          30.4810  -12.9795   10.3945 N.am      7 SEC1        0.0000 
     25 N          29.2640  -13.2875   11.1775 N.am      7 SEC1        0.0000 
     26 N          30.4065  -15.6610    6.5640 N.am      7 SEC1        0.0000 
     27 N          28.1385  -19.0150    9.3920 N.am      7 SEC1        0.0000 
     28 O          25.8515  -18.3070   10.5160 O.2       8 ALC2        0.0000 
     29 O          25.3210  -14.4770   17.4710 O.2       8 ALC2        0.0000 
     30 O          23.9630  -16.0380   18.4440 O.2       8 ALC2        0.0000 
     31 CA         32.7350  -16.5240   10.3320 C.3       9 GLC5        0.0000 
     32 CA         31.3440  -15.4675   13.1200 C.3       9 GLC5        0.0000 
     33 CA         29.1565  -18.0140   14.5100 C.3       9 GLC5        0.0000 
     34 CA         31.3985  -18.1812   11.8502 C.3       9 GLC5        0.0000 
     35 CA         26.9038  -15.4765   11.3812 C.3       9 GLC5        0.0000 
@<TRIPOS>BOND
@<TRIPOS>SUBSTRUCTURE
     1 SEL1        1 GROUP        1 Z    SEL  0     ROOT SEL Z 0
     2 ALL2        4 GROUP        1 Z    ALL  0     **** ALL Z 1
     3 GLL5        6 GROUP        1 Z    GLL  0     **** GLL Z 4
     4 SEP1       10 GROUP        1 Z    SEP  0     **** SEP Z 7
     5 ALP2       15 GROUP        1 Z    ALP  0     **** ALP Z 8
     6 GLP5       18 GROUP        1 Z    GLP  0     **** GLP Z 11
     7 SEC1       23 GROUP        1 Z    SEC  0     **** SEC Z 14
     8 ALC2       28 GROUP        1 Z    ALC  0     **** ALC Z 15
     9 GLC5       31 GROUP        1 Z    GLC  0     **** GLC Z 18
@<TRIPOS>SET

