@<TRIPOS>MOLECULE
3kcc_CMP_3_ligand
   34    37     1     0     0
SMALL
NO_CHARGES


@<TRIPOS>ATOM
     1 P           29.6010   -15.1090     9.1230 P.3          1 CMP302   0.0000
     2 O1P         29.4220   -13.7690     9.7750 O.2          1 CMP302   0.0000
     3 O2P         29.7060   -15.0820     7.6190 O.3          1 CMP302   0.0000
     4 O5'         30.9570   -15.7480     9.7360 O.3          1 CMP302   0.0000
     5 C5'         30.9280   -16.0170    11.1400 C.3          1 CMP302   0.0000
     6 C4'         29.8320   -17.0400    11.3390 C.3          1 CMP302   0.0000
     7 O4'         29.6010   -17.4460    12.6820 O.3          1 CMP302   0.0000
     8 C3'         28.5000   -16.4430    10.9720 C.3          1 CMP302   0.0000
     9 O3'         28.4970   -16.1820     9.5750 O.3          1 CMP302   0.0000
    10 C2'         27.5650   -17.5110    11.4850 C.3          1 CMP302   0.0000
    11 O2'         27.5280   -18.6750    10.6600 O.3          1 CMP302   0.0000
    12 C1'         28.2580   -17.9180    12.7900 C.3          1 CMP302   0.0000
    13 N9          27.6540   -17.1590    13.9020 N.pl3        1 CMP302   0.0000
    14 C8          27.8760   -15.8620    14.1840 C.2          1 CMP302   0.0000
    15 N7          27.1340   -15.4650    15.2500 N.2          1 CMP302   0.0000
    16 C5          26.4380   -16.5400    15.6500 C.ar         1 CMP302   0.0000
    17 C6          25.4690   -16.8330    16.7240 C.ar         1 CMP302   0.0000
    18 N6          25.1110   -15.8540    17.5740 N.pl3        1 CMP302   0.0000
    19 N1          24.9730   -18.0880    16.8110 N.ar         1 CMP302   0.0000
    20 C2          25.3310   -19.0660    15.9600 C.ar         1 CMP302   0.0000
    21 N3          26.1930   -18.8630    14.9470 N.ar         1 CMP302   0.0000
    22 C4          26.7750   -17.6540    14.7640 C.ar         1 CMP302   0.0000
    23 H5'1        30.7224   -15.1822    11.6507 H            1 CMP302   0.0000
    24 H5'2        31.8073   -16.3849    11.4426 H            1 CMP302   0.0000
    25 H4'         30.0111   -17.8423    10.7695 H            1 CMP302   0.0000
    26 H3'         28.3565   -15.5925    11.4780 H            1 CMP302   0.0000
    27 H2'         26.6481   -17.1486    11.6522 H            1 CMP302   0.0000
    28 H6          26.8145   -18.5700     9.9672 H            1 CMP302   0.0000
    29 H1'         28.2183   -18.9053    12.9441 H            1 CMP302   0.0000
    30 H8          28.5028   -15.2703    13.6770 H            1 CMP302   0.0000
    31 H9          24.4552   -16.0417    18.3052 H            1 CMP302   0.0000
    32 H10         25.5006   -14.9384    17.4747 H            1 CMP302   0.0000
    33 H11         24.9418   -19.9786    16.0849 H            1 CMP302   0.0000
    34 H2P         28.7933   -15.1684     7.2195 H            1 CMP302   0.0000
@<TRIPOS>BOND
     1    1    2       2
     2    1    3       1
     3    1    4       1
     4    1    9       1
     5    4    5       1
     6    5    6       1
     7    6    7       1
     8    6    8       1
     9    7   12       1
    10    8    9       1
    11    8   10       1
    12   10   11       1
    13   10   12       1
    14   12   13       1
    15   13   14       1
    16   13   22       1
    17   14   15       2
    18   15   16       1
    19   16   17      ar
    20   16   22      ar
    21   17   18       1
    22   17   19      ar
    23   19   20      ar
    24   20   21      ar
    25   21   22      ar
    26   20   33       1
    27    5   23       1
    28    5   24       1
    29    6   25       1
    30    8   26       1
    31   10   27       1
    32   11   28       1
    33   12   29       1
    34   14   30       1
    35   18   31       1
    36   18   32       1
    37    3   34       1
@<TRIPOS>SUBSTRUCTURE
     1 CMP302      1 GROUP             4 B     CMP     0 **** CMP B 302
