3kcc_CMP_3_ligand
  -OEChem-08111718373D

 33 36  0     1  0  0  0  0  0999 V2000
   24.9418  -19.9786   16.0849 H   0  0  0  0  0  0  0  0  0  0  0  0
   28.5028  -15.2703   13.6770 H   0  0  0  0  0  0  0  0  0  0  0  0
   30.7224  -15.1822   11.6507 H   0  0  0  0  0  0  0  0  0  0  0  0
   31.8073  -16.3849   11.4426 H   0  0  0  0  0  0  0  0  0  0  0  0
   30.0111  -17.8423   10.7695 H   0  0  0  0  0  0  0  0  0  0  0  0
   28.3565  -15.5925   11.4780 H   0  0  0  0  0  0  0  0  0  0  0  0
   26.6481  -17.1486   11.6522 H   0  0  0  0  0  0  0  0  0  0  0  0
   28.2183  -18.9053   12.9441 H   0  0  0  0  0  0  0  0  0  0  0  0
   24.4552  -16.0417   18.3052 H   0  0  0  0  0  0  0  0  0  0  0  0
   25.5006  -14.9384   17.4747 H   0  0  0  0  0  0  0  0  0  0  0  0
   26.8145  -18.5700    9.9672 H   0  0  0  0  0  0  0  0  0  0  0  0
   25.3310  -19.0660   15.9600 C   0  0  0  0  0  0  0  0  0  0  0  0
   27.8760  -15.8620   14.1840 C   0  0  0  0  0  0  0  0  0  0  0  0
   26.4380  -16.5400   15.6500 C   0  0  0  0  0  0  0  0  0  0  0  0
   26.7750  -17.6540   14.7640 C   0  0  0  0  0  0  0  0  0  0  0  0
   25.4690  -16.8330   16.7240 C   0  0  0  0  0  0  0  0  0  0  0  0
   30.9280  -16.0170   11.1400 C   0  0  1  0  0  0  0  0  0  0  0  0
   29.8320  -17.0400   11.3390 C   0  0  2  0  0  0  0  0  0  0  0  0
   28.5000  -16.4430   10.9720 C   0  0  2  0  0  0  0  0  0  0  0  0
   27.5650  -17.5110   11.4850 C   0  0  2  0  0  0  0  0  0  0  0  0
   28.2580  -17.9180   12.7900 C   0  0  2  0  0  0  0  0  0  0  0  0
   26.1930  -18.8630   14.9470 N   0  0  0  0  0  0  0  0  0  0  0  0
   24.9730  -18.0880   16.8110 N   0  0  0  0  0  0  0  0  0  0  0  0
   27.1340  -15.4650   15.2500 N   0  0  0  0  0  0  0  0  0  0  0  0
   27.6540  -17.1590   13.9020 N   0  0  0  0  0  0  0  0  0  0  0  0
   25.1110  -15.8540   17.5740 N   0  0  0  0  0  0  0  0  0  0  0  0
   29.4220  -13.7690    9.7750 O   0  0  0  0  0  0  0  0  0  0  0  0
   30.9570  -15.7480    9.7360 O   0  0  0  0  0  0  0  0  0  0  0  0
   29.6010  -17.4460   12.6820 O   0  0  0  0  0  0  0  0  0  0  0  0
   28.4970  -16.1820    9.5750 O   0  0  0  0  0  0  0  0  0  0  0  0
   27.5280  -18.6750   10.6600 O   0  0  0  0  0  0  0  0  0  0  0  0
   29.7060  -15.0820    7.6190 O   0  5  0  0  0  0  0  0  0  0  0  0
   29.6010  -15.1090    9.1230 P   0  0  1  0  0  0  0  0  0  0  0  0
  1 12  1  0  0  0  0
  2 13  1  0  0  0  0
  3 17  1  0  0  0  0
  4 17  1  0  0  0  0
  5 18  1  0  0  0  0
  6 19  1  0  0  0  0
  7 20  1  0  0  0  0
  8 21  1  0  0  0  0
  9 26  1  0  0  0  0
 10 26  1  0  0  0  0
 11 31  1  0  0  0  0
 12 22  1  0  0  0  0
 12 23  2  0  0  0  0
 13 24  2  0  0  0  0
 13 25  1  0  0  0  0
 14 15  1  0  0  0  0
 14 16  2  0  0  0  0
 14 24  1  0  0  0  0
 15 22  2  0  0  0  0
 15 25  1  0  0  0  0
 16 23  1  0  0  0  0
 16 26  1  0  0  0  0
 17 18  1  0  0  0  0
 17 28  1  0  0  0  0
 18 19  1  0  0  0  0
 18 29  1  0  0  0  0
 19 20  1  0  0  0  0
 19 30  1  0  0  0  0
 20 21  1  0  0  0  0
 20 31  1  0  0  0  0
 21 25  1  0  0  0  0
 21 29  1  0  0  0  0
 27 33  2  0  0  0  0
 28 33  1  0  0  0  0
 30 33  1  0  0  0  0
 32 33  1  0  0  0  0
M  CHG  1  32  -1
M  END
> <scpdb_id>
3kcc_3

$$$$
