#    Name: 25955
#    Modification time : Tue Aug  8 21:17:36 2017

@<TRIPOS>MOLECULE
25955
   39     0     9     0     0
SMALL
NO_CHARGES


@<TRIPOS>ATOM
      1 N          32.5620   73.7580   10.4070 N.am      1 SEL1        0.0000 
      2 CA         32.8760   64.8610   14.0620 C.3       2 GLL5        0.0000 
      3 CA         34.9660   64.6910   12.7750 C.3       2 GLL5        0.0000 
      4 CA         32.7520   64.6570   11.5980 C.3       2 GLL5        0.0000 
      5 CA         32.6770   70.8310   12.7140 C.3       2 GLL5        0.0000 
      6 CA         33.5620   70.8530   10.3330 C.3       2 GLL5        0.0000 
      7 CA         30.6300   77.2210   10.6730 C.3       2 GLL5        0.0000 
      8 CA         33.4040   71.6550   11.6290 C.3       2 GLL5        0.0000 
      9 CZ         31.9842   73.8906   11.3986 C.ar      3 PHL6        0.0000 
     10 N          35.1580   74.2280    8.5790 N.am      4 SEP1        0.0000 
     11 CA         35.2920   64.9550   17.2280 C.3       5 GLP5        0.0000 
     12 CA         31.4920   65.4250   17.1840 C.3       5 GLP5        0.0000 
     13 CA         37.4750   64.3570   16.0980 C.3       5 GLP5        0.0000 
     14 CA         36.4210   61.8320   11.1340 C.3       5 GLP5        0.0000 
     15 CA         37.3120   67.7660   13.1190 C.3       5 GLP5        0.0000 
     16 CA         29.5120   64.0640    9.2750 C.3       5 GLP5        0.0000 
     17 CA         29.0930   69.5620   13.8860 C.3       5 GLP5        0.0000 
     18 CA         35.5430   70.4030    7.1820 C.3       5 GLP5        0.0000 
     19 CA         29.4750   71.9450    9.2450 C.3       5 GLP5        0.0000 
     20 CA         30.6520   79.0590   13.5740 C.3       5 GLP5        0.0000 
     21 CA         29.7080   67.4760   12.6560 C.3       5 GLP5        0.0000 
     22 CA         29.2470   71.6480   10.5890 C.3       5 GLP5        0.0000 
     23 CA         37.0240   72.0830   11.9720 C.3       5 GLP5        0.0000 
     24 CZ         28.7162   72.8090   10.0115 C.ar      6 PHP6        0.0000 
     25 N          33.8600   73.9930    9.4930 N.am      7 SEC1        0.0000 
     26 CA         34.0840   64.9080   15.6450 C.3       8 GLC5        0.0000 
     27 CA         32.1840   65.1430   15.6230 C.3       8 GLC5        0.0000 
     28 CA         36.2205   64.5240   14.4365 C.3       8 GLC5        0.0000 
     29 CA         35.6935   63.2615   11.9545 C.3       8 GLC5        0.0000 
     30 CA         36.1390   66.2285   12.9470 C.3       8 GLC5        0.0000 
     31 CA         31.1320   64.3605   10.4365 C.3       8 GLC5        0.0000 
     32 CA         30.8850   70.1965   13.3000 C.3       8 GLC5        0.0000 
     33 CA         34.5525   70.6280    8.7575 C.3       8 GLC5        0.0000 
     34 CA         31.5185   71.3990    9.7890 C.3       8 GLC5        0.0000 
     35 CA         30.6410   78.1400   12.1235 C.3       8 GLC5        0.0000 
     36 CA         31.3459   66.1662   12.5799 C.3       8 GLC5        0.0000 
     37 CA         31.1438   71.4455   11.3803 C.3       8 GLC5        0.0000 
     38 CA         35.2535   71.6685   11.4765 C.3       8 GLC5        0.0000 
     39 CZ         30.3502   73.3498   10.7050 C.ar      9 PHC6        0.0000 
@<TRIPOS>BOND
@<TRIPOS>SUBSTRUCTURE
     1 SEL1        1 GROUP        1 Z    SEL  0     ROOT SEL Z 0
     2 GLL5        2 GROUP        1 Z    GLL  0     **** GLL Z 4
     3 PHL6        9 GROUP        1 Z    PHL  0     **** PHL Z 6
     4 SEP1       10 GROUP        1 Z    SEP  0     **** SEP Z 7
     5 GLP5       11 GROUP        1 Z    GLP  0     **** GLP Z 11
     6 PHP6       24 GROUP        1 Z    PHP  0     **** PHP Z 13
     7 SEC1       25 GROUP        1 Z    SEC  0     **** SEC Z 14
     8 GLC5       26 GROUP        1 Z    GLC  0     **** GLC Z 18
     9 PHC6       39 GROUP        1 Z    PHC  0     **** PHC Z 20
@<TRIPOS>SET

