3g1o_RF1_1_ligand
  -OEChem-08111718373D

 44 46  0     1  0  0  0  0  0999 V2000
   30.8922   77.4714    7.2735 H   0  0  0  0  0  0  0  0  0  0  0  0
   31.7698   75.3541    8.0397 H   0  0  0  0  0  0  0  0  0  0  0  0
   30.0692   78.9703    9.0636 H   0  0  0  0  0  0  0  0  0  0  0  0
   32.6590   71.3630   13.5606 H   0  0  0  0  0  0  0  0  0  0  0  0
   31.7405   70.6576   12.4093 H   0  0  0  0  0  0  0  0  0  0  0  0
   32.6629   70.5581   10.0095 H   0  0  0  0  0  0  0  0  0  0  0  0
   33.9961   71.4240    9.6362 H   0  0  0  0  0  0  0  0  0  0  0  0
   34.0984   69.6531   13.6376 H   0  0  0  0  0  0  0  0  0  0  0  0
   32.6772   68.8845   13.4009 H   0  0  0  0  0  0  0  0  0  0  0  0
   34.4533   69.0327    9.8003 H   0  0  0  0  0  0  0  0  0  0  0  0
   35.3732   69.9175   10.8189 H   0  0  0  0  0  0  0  0  0  0  0  0
   34.3128   71.8992   11.9674 H   0  0  0  0  0  0  0  0  0  0  0  0
   31.9428   65.2201   14.0725 H   0  0  0  0  0  0  0  0  0  0  0  0
   32.8505   63.8643   14.1396 H   0  0  0  0  0  0  0  0  0  0  0  0
   33.3886   65.2423   14.8314 H   0  0  0  0  0  0  0  0  0  0  0  0
   35.4326   64.9355   11.9250 H   0  0  0  0  0  0  0  0  0  0  0  0
   35.4665   65.0733   13.5518 H   0  0  0  0  0  0  0  0  0  0  0  0
   34.9284   63.6953   12.8601 H   0  0  0  0  0  0  0  0  0  0  0  0
   33.1852   64.9041   10.7312 H   0  0  0  0  0  0  0  0  0  0  0  0
   32.7265   63.6612   11.6860 H   0  0  0  0  0  0  0  0  0  0  0  0
   31.8195   65.0175   11.6193 H   0  0  0  0  0  0  0  0  0  0  0  0
   30.9080   77.2230    8.2420 C   0  0  0  0  0  0  0  0  0  0  0  0
   31.3940   76.0390    8.6640 C   0  0  0  0  0  0  0  0  0  0  0  0
   30.4450   78.0530    9.1950 C   0  0  0  0  0  0  0  0  0  0  0  0
   31.3320   75.8570    9.9830 C   0  0  0  0  0  0  0  0  0  0  0  0
   31.7190   74.7670   10.7440 C   0  0  0  0  0  0  0  0  0  0  0  0
   32.5900   72.9360   11.4430 C   0  0  0  0  0  0  0  0  0  0  0  0
   34.0200   67.5100   11.7040 C   0  0  0  0  0  0  0  0  0  0  0  0
   32.6770   70.8310   12.7140 C   0  0  2  0  0  0  0  0  0  0  0  0
   33.5620   70.8530   10.3330 C   0  0  2  0  0  0  0  0  0  0  0  0
   33.3500   69.5010   12.9920 C   0  0  1  0  0  0  0  0  0  0  0  0
   34.4420   69.6180   10.6110 C   0  0  1  0  0  0  0  0  0  0  0  0
   33.4040   71.6550   11.6290 C   0  0  1  0  0  0  0  0  0  0  0  0
   32.8760   64.8610   14.0620 C   0  0  0  0  0  0  0  0  0  0  0  0
   34.9660   64.6910   12.7750 C   0  0  0  0  0  0  0  0  0  0  0  0
   32.7520   64.6570   11.5980 C   0  0  0  0  0  0  0  0  0  0  0  0
   33.5550   65.2510   12.7570 C   0  0  1  0  0  0  0  0  0  0  0  0
   32.5620   73.7580   10.4070 N   0  0  0  0  0  0  0  0  0  0  0  0
   31.2510   74.5840   11.9540 N   0  0  0  0  0  0  0  0  0  0  0  0
   33.9080   68.8480   11.7620 N   0  0  0  0  0  0  0  0  0  0  0  0
   34.5220   66.9830   10.7050 O   0  0  0  0  0  0  0  0  0  0  0  0
   31.7990   73.4080   12.4450 O   0  0  0  0  0  0  0  0  0  0  0  0
   33.5760   66.7480   12.7510 O   0  0  0  0  0  0  0  0  0  0  0  0
   30.6300   77.2210   10.6730 S   0  0  0  0  0  0  0  0  0  0  0  0
  1 22  1  0  0  0  0
  2 23  1  0  0  0  0
  3 24  1  0  0  0  0
  4 29  1  0  0  0  0
  5 29  1  0  0  0  0
  6 30  1  0  0  0  0
  7 30  1  0  0  0  0
  8 31  1  0  0  0  0
  9 31  1  0  0  0  0
 10 32  1  0  0  0  0
 11 32  1  0  0  0  0
 12 33  1  0  0  0  0
 13 34  1  0  0  0  0
 14 34  1  0  0  0  0
 15 34  1  0  0  0  0
 16 35  1  0  0  0  0
 17 35  1  0  0  0  0
 18 35  1  0  0  0  0
 19 36  1  0  0  0  0
 20 36  1  0  0  0  0
 21 36  1  0  0  0  0
 22 23  1  0  0  0  0
 22 24  2  0  0  0  0
 23 25  2  0  0  0  0
 24 44  1  0  0  0  0
 25 26  1  0  0  0  0
 25 44  1  0  0  0  0
 26 38  1  0  0  0  0
 26 39  2  0  0  0  0
 27 33  1  0  0  0  0
 27 38  2  0  0  0  0
 27 42  1  0  0  0  0
 28 40  1  0  0  0  0
 28 41  2  0  0  0  0
 28 43  1  0  0  0  0
 29 31  1  0  0  0  0
 29 33  1  0  0  0  0
 30 32  1  0  0  0  0
 30 33  1  0  0  0  0
 31 40  1  0  0  0  0
 32 40  1  0  0  0  0
 34 37  1  0  0  0  0
 35 37  1  0  0  0  0
 36 37  1  0  0  0  0
 37 43  1  0  0  0  0
 39 42  1  0  0  0  0
M  END
> <scpdb_id>
3g1o_1

$$$$
