1xv9_CI2_1_ligand
  -OEChem-08111718373D

 55 58  0     1  0  0  0  0  0999 V2000
   29.5454   70.4687   78.6524 H   0  0  0  0  0  0  0  0  0  0  0  0
   30.1047   69.4181   77.5344 H   0  0  0  0  0  0  0  0  0  0  0  0
   26.3633   69.5687   76.3948 H   0  0  0  0  0  0  0  0  0  0  0  0
   27.5877   68.6848   75.7733 H   0  0  0  0  0  0  0  0  0  0  0  0
   28.4109   68.8710   79.7580 H   0  0  0  0  0  0  0  0  0  0  0  0
   29.8093   68.1312   79.3534 H   0  0  0  0  0  0  0  0  0  0  0  0
   29.5700   62.0632   74.0892 H   0  0  0  0  0  0  0  0  0  0  0  0
   29.6148   63.1582   72.8785 H   0  0  0  0  0  0  0  0  0  0  0  0
   27.7682   63.0992   74.9642 H   0  0  0  0  0  0  0  0  0  0  0  0
   27.8053   64.1865   73.7464 H   0  0  0  0  0  0  0  0  0  0  0  0
   25.7260   66.2825   77.4961 H   0  0  0  0  0  0  0  0  0  0  0  0
   25.3761   67.3932   76.3513 H   0  0  0  0  0  0  0  0  0  0  0  0
   26.3328   65.3874   75.4238 H   0  0  0  0  0  0  0  0  0  0  0  0
   27.2153   66.7130   75.0622 H   0  0  0  0  0  0  0  0  0  0  0  0
   30.2333   65.3917   78.5243 H   0  0  0  0  0  0  0  0  0  0  0  0
   30.9505   66.7842   78.0626 H   0  0  0  0  0  0  0  0  0  0  0  0
   31.9579   64.7764   77.0493 H   0  0  0  0  0  0  0  0  0  0  0  0
   31.4998   65.9000   75.9564 H   0  0  0  0  0  0  0  0  0  0  0  0
   31.0261   64.5571   74.0148 H   0  0  0  0  0  0  0  0  0  0  0  0
   26.3150   68.3464   78.3136 H   0  0  0  0  0  0  0  0  0  0  0  0
   27.8316   64.7873   77.1345 H   0  0  0  0  0  0  0  0  0  0  0  0
   29.2745   65.5173   74.7940 H   0  0  0  0  0  0  0  0  0  0  0  0
   29.2417   67.2342   76.5542 H   0  0  0  0  0  0  0  0  0  0  0  0
   33.1585   64.7167   74.8499 H   0  0  0  0  0  0  0  0  0  0  0  0
   33.8641   63.4519   75.6042 H   0  0  0  0  0  0  0  0  0  0  0  0
   33.9778   63.6021   73.9821 H   0  0  0  0  0  0  0  0  0  0  0  0
   28.4685   66.0772   79.9152 H   0  0  0  0  0  0  0  0  0  0  0  0
   27.1372   67.0052   80.0967 H   0  0  0  0  0  0  0  0  0  0  0  0
   27.1131   65.7345   79.0714 H   0  0  0  0  0  0  0  0  0  0  0  0
   29.8640   63.3077   77.7275 H   0  0  0  0  0  0  0  0  0  0  0  0
   29.5564   62.3305   76.4558 H   0  0  0  0  0  0  0  0  0  0  0  0
   31.0942   62.5633   76.9535 H   0  0  0  0  0  0  0  0  0  0  0  0
   28.2210   70.1210   77.1240 C   0  0  0  0  0  0  0  0  0  0  0  0
   32.1140   62.9380   74.6120 C   0  0  0  0  0  0  0  0  0  0  0  0
   29.3090   69.6850   78.0780 C   0  0  2  0  0  0  0  0  0  0  0  0
   27.2180   69.0950   76.6070 C   0  0  1  0  0  0  0  0  0  0  0  0
   28.9580   68.5180   78.9990 C   0  0  2  0  0  0  0  0  0  0  0  0
   29.5860   63.0390   73.8710 C   0  0  1  0  0  0  0  0  0  0  0  0
   28.3460   63.7410   74.4600 C   0  0  2  0  0  0  0  0  0  0  0  0
   26.1150   66.9230   76.8340 C   0  0  2  0  0  0  0  0  0  0  0  0
   26.9140   66.1090   75.8000 C   0  0  1  0  0  0  0  0  0  0  0  0
   30.3920   66.0130   77.7570 C   0  0  1  0  0  0  0  0  0  0  0  0
   31.1750   65.2360   76.6300 C   0  0  2  0  0  0  0  0  0  0  0  0
   30.8310   63.7300   74.5420 C   0  0  1  0  0  0  0  0  0  0  0  0
   26.9130   67.9700   77.6060 C   0  0  1  0  0  0  0  0  0  0  0  0
   28.1460   65.4740   76.4790 C   0  0  1  0  0  0  0  0  0  0  0  0
   28.9950   64.7750   75.4030 C   0  0  1  0  0  0  0  0  0  0  0  0
   29.0030   66.5620   77.2550 C   0  0  1  0  0  0  0  0  0  0  0  0
   28.1560   67.3800   78.3080 C   0  0  1  0  0  0  0  0  0  0  0  0
   30.3240   64.1780   75.8990 C   0  0  2  0  0  0  0  0  0  0  0  0
   33.3870   63.7460   74.7760 C   0  0  0  0  0  0  0  0  0  0  0  0
   27.6770   66.4700   79.4470 C   0  0  0  0  0  0  0  0  0  0  0  0
   30.1990   62.9940   76.8390 C   0  0  0  0  0  0  0  0  0  0  0  0
   28.2330   71.2180   76.6670 O   0  0  0  0  0  0  0  0  0  0  0  0
   32.1240   61.7530   74.5030 O   0  0  0  0  0  0  0  0  0  0  0  0
  1 35  1  0  0  0  0
  2 35  1  0  0  0  0
  3 36  1  0  0  0  0
  4 36  1  0  0  0  0
  5 37  1  0  0  0  0
  6 37  1  0  0  0  0
  7 38  1  0  0  0  0
  8 38  1  0  0  0  0
  9 39  1  0  0  0  0
 10 39  1  0  0  0  0
 11 40  1  0  0  0  0
 12 40  1  0  0  0  0
 13 41  1  0  0  0  0
 14 41  1  0  0  0  0
 15 42  1  0  0  0  0
 16 42  1  0  0  0  0
 17 43  1  0  0  0  0
 18 43  1  0  0  0  0
 19 44  1  0  0  0  0
 20 45  1  0  0  0  0
 21 46  1  0  0  0  0
 22 47  1  0  0  0  0
 23 48  1  0  0  0  0
 24 51  1  0  0  0  0
 25 51  1  0  0  0  0
 26 51  1  0  0  0  0
 27 52  1  0  0  0  0
 28 52  1  0  0  0  0
 29 52  1  0  0  0  0
 30 53  1  0  0  0  0
 31 53  1  0  0  0  0
 32 53  1  0  0  0  0
 33 35  1  0  0  0  0
 33 36  1  0  0  0  0
 33 54  2  0  0  0  0
 34 44  1  0  0  0  0
 34 51  1  0  0  0  0
 34 55  2  0  0  0  0
 35 37  1  0  0  0  0
 36 45  1  0  0  0  0
 37 49  1  0  0  0  0
 38 39  1  0  0  0  0
 38 44  1  0  0  0  0
 39 47  1  0  0  0  0
 40 41  1  0  0  0  0
 40 45  1  0  0  0  0
 41 46  1  0  0  0  0
 42 43  1  0  0  0  0
 42 48  1  0  0  0  0
 43 50  1  0  0  0  0
 44 50  1  0  0  0  0
 45 49  1  0  0  0  0
 46 47  1  0  0  0  0
 46 48  1  0  0  0  0
 47 50  1  0  0  0  0
 48 49  1  0  0  0  0
 49 52  1  0  0  0  0
 50 53  1  0  0  0  0
M  END
> <scpdb_id>
1xv9_1

$$$$
