#    Name: 27798
#    Modification time : Tue Aug  8 22:17:25 2017

@<TRIPOS>MOLECULE
27798
   74     0     6     0     0
SMALL
NO_CHARGES


@<TRIPOS>ATOM
      1 N          27.8470  -16.7440   20.3400 N.am      1 SEL1        0.0000 
      2 CA         23.8860  -14.6880   19.1500 C.3       2 GLL5        0.0000 
      3 CA         13.1170  -15.0330   17.4190 C.3       2 GLL5        0.0000 
      4 CA         21.2410  -15.3580   18.3200 C.3       2 GLL5        0.0000 
      5 CA         24.2480  -19.2300   18.0580 C.3       2 GLL5        0.0000 
      6 CA         13.2990  -17.3110   18.9960 C.3       2 GLL5        0.0000 
      7 CA         23.4550  -18.6030   16.8840 C.3       2 GLL5        0.0000 
      8 CA         18.0530  -18.8260   19.2410 C.3       2 GLL5        0.0000 
      9 CA         19.3000  -16.6170   19.3780 C.3       2 GLL5        0.0000 
     10 CA         29.5530  -14.6820   20.6920 C.3       2 GLL5        0.0000 
     11 CA         27.6560  -13.6020   21.2920 C.3       2 GLL5        0.0000 
     12 CA         28.3060  -13.4750   19.2090 C.3       2 GLL5        0.0000 
     13 CA         23.9350  -18.5610   19.4280 C.3       2 GLL5        0.0000 
     14 CA         14.3690  -15.5880   17.6990 C.3       2 GLL5        0.0000 
     15 CA         19.9160  -16.1040   18.0520 C.3       2 GLL5        0.0000 
     16 CA         11.9490  -15.6160   17.9250 C.3       2 GLL5        0.0000 
     17 N          28.9290  -18.8660   22.6750 N.am      3 SEP1        0.0000 
     18 CA         23.6280  -11.2730   16.5340 C.3       4 GLP5        0.0000 
     19 CA         13.5870  -11.2820   16.0000 C.3       4 GLP5        0.0000 
     20 CA         23.5160  -13.5660   15.5150 C.3       4 GLP5        0.0000 
     21 CA         22.3090  -14.2820   22.3700 C.3       4 GLP5        0.0000 
     22 CA         24.8470  -23.3920   17.8100 C.3       4 GLP5        0.0000 
     23 CA         13.9620  -19.9210   15.6820 C.3       4 GLP5        0.0000 
     24 CA         24.1460  -17.9950   13.1970 C.3       4 GLP5        0.0000 
     25 CA         17.8770  -16.8990   23.2970 C.3       4 GLP5        0.0000 
     26 CA         20.7330  -19.5080   22.6430 C.3       4 GLP5        0.0000 
     27 CA         16.2950  -22.3630   19.9020 C.3       4 GLP5        0.0000 
     28 CA         18.3440  -17.8960   15.3940 C.3       4 GLP5        0.0000 
     29 CA         32.0960  -17.0620   18.5800 C.3       4 GLP5        0.0000 
     30 CA         26.1690  -10.1400   20.9620 C.3       4 GLP5        0.0000 
     31 CA         25.2600  -12.3280   24.1560 C.3       4 GLP5        0.0000 
     32 CA         29.4570   -9.5810   19.0890 C.3       4 GLP5        0.0000 
     33 CA         27.9040  -13.8940   15.5500 C.3       4 GLP5        0.0000 
     34 CA         22.1150  -18.3710   22.9680 C.3       4 GLP5        0.0000 
     35 CA         16.1010  -14.9530   14.4650 C.3       4 GLP5        0.0000 
     36 CA         25.8740  -20.8430   21.8740 C.3       4 GLP5        0.0000 
     37 CA         29.1600  -11.9210   23.4870 C.3       4 GLP5        0.0000 
     38 CA         26.5370  -15.9810   24.0220 C.3       4 GLP5        0.0000 
     39 CA         19.5570  -17.5060   14.8430 C.3       4 GLP5        0.0000 
     40 CA         26.7880  -20.6860   14.8760 C.3       4 GLP5        0.0000 
     41 CA         11.8600  -12.4560   19.8790 C.3       4 GLP5        0.0000 
     42 CA         18.7180  -12.5060   18.9320 C.3       4 GLP5        0.0000 
     43 CA         32.2270  -12.8630   20.9880 C.3       4 GLP5        0.0000 
     44 N          28.3880  -17.8050   21.5075 N.am      5 SEC1        0.0000 
     45 CA         23.7570  -12.9805   17.8420 C.3       6 GLC5        0.0000 
     46 CA         13.3520  -13.1575   16.7095 C.3       6 GLC5        0.0000 
     47 CA         22.3785  -14.4620   16.9175 C.3       6 GLC5        0.0000 
     48 CA         21.7750  -14.8200   20.3450 C.3       6 GLC5        0.0000 
     49 CA         24.5475  -21.3110   17.9340 C.3       6 GLC5        0.0000 
     50 CA         13.6305  -18.6160   17.3390 C.3       6 GLC5        0.0000 
     51 CA         23.8005  -18.2990   15.0405 C.3       6 GLC5        0.0000 
     52 CA         17.9650  -17.8625   21.2690 C.3       6 GLC5        0.0000 
     53 CA         19.3930  -19.1670   20.9420 C.3       6 GLC5        0.0000 
     54 CA         17.1740  -20.5945   19.5715 C.3       6 GLC5        0.0000 
     55 CA         18.1985  -18.3610   17.3175 C.3       6 GLC5        0.0000 
     56 CA         18.5885  -16.7580   21.3375 C.3       6 GLC5        0.0000 
     57 CA         18.8220  -17.2565   17.3860 C.3       6 GLC5        0.0000 
     58 CA         30.8245  -15.8720   19.6360 C.3       6 GLC5        0.0000 
     59 CA         26.9125  -11.8710   21.1270 C.3       6 GLC5        0.0000 
     60 CA         26.4580  -12.9650   22.7240 C.3       6 GLC5        0.0000 
     61 CA         28.8815  -11.5280   19.1490 C.3       6 GLC5        0.0000 
     62 CA         27.2375  -11.8075   20.0855 C.3       6 GLC5        0.0000 
     63 CA         28.1050  -13.6845   17.3795 C.3       6 GLC5        0.0000 
     64 CA         23.1312  -18.0978   21.2010 C.3       6 GLC5        0.0000 
     65 CA         14.9220  -15.1317   16.0120 C.3       6 GLC5        0.0000 
     66 CA         24.9827  -19.8693   20.3085 C.3       6 GLC5        0.0000 
     67 CA         29.0410  -13.2048   21.9928 C.3       6 GLC5        0.0000 
     68 CA         27.2553  -14.9647   22.4102 C.3       6 GLC5        0.0000 
     69 CA         20.0678  -16.6185   16.5145 C.3       6 GLC5        0.0000 
     70 CA         25.3197  -19.8012   16.1735 C.3       6 GLC5        0.0000 
     71 CA         12.0760  -14.2511   19.0350 C.3       6 GLC5        0.0000 
     72 CA         19.3286  -14.3400   18.8570 C.3       6 GLC5        0.0000 
     73 CA         23.2087  -14.6107   20.7986 C.3       6 GLC5        0.0000 
     74 CA         30.4186  -13.5249   20.5579 C.3       6 GLC5        0.0000 
@<TRIPOS>BOND
@<TRIPOS>SUBSTRUCTURE
     1 SEL1        1 GROUP        1 Z    SEL  0     ROOT SEL Z 0
     2 GLL5        2 GROUP        1 Z    GLL  0     **** GLL Z 4
     3 SEP1       17 GROUP        1 Z    SEP  0     **** SEP Z 7
     4 GLP5       18 GROUP        1 Z    GLP  0     **** GLP Z 11
     5 SEC1       44 GROUP        1 Z    SEC  0     **** SEC Z 14
     6 GLC5       45 GROUP        1 Z    GLC  0     **** GLC Z 18
@<TRIPOS>SET

