#    Name: 31979
#    Modification time : Tue Aug  8 22:43:01 2017

@<TRIPOS>MOLECULE
31979
   61     0    12     0     0
SMALL
NO_CHARGES


@<TRIPOS>ATOM
      1 N           4.2590  -12.9460   50.9130 N.am      1 SEL1        0.0000 
      2 N           7.3830  -12.0160   54.0460 N.am      1 SEL1        0.0000 
      3 N           8.6240  -11.0290   47.3500 N.am      1 SEL1        0.0000 
      4 N           5.7260  -12.5120   41.9950 N.am      1 SEL1        0.0000 
      5 O           5.7920  -12.5240   52.5240 O.2       2 ALL2        0.0000 
      6 O           8.6240  -11.0290   47.3500 O.2       2 ALL2        0.0000 
      7 O           5.9950  -12.3720   46.3040 O.2       2 ALL2        0.0000 
      8 NZ          5.7260  -12.5120   41.9950 N.4       3 LYL3        0.0000 
      9 NZ          4.2620  -10.5100   41.9850 N.4       3 LYL3        0.0000 
     10 CA         10.4150   -8.6750   51.9010 C.3       4 GLL5        0.0000 
     11 CA         12.2400   -7.0350   51.4010 C.3       4 GLL5        0.0000 
     12 CA         11.1010   -6.6690   48.7590 C.3       4 GLL5        0.0000 
     13 CA          7.0320   -9.6950   48.5310 C.3       4 GLL5        0.0000 
     14 CA          6.1610  -10.2790   44.1650 C.3       4 GLL5        0.0000 
     15 CA          8.7360   -9.1980   50.2670 C.3       4 GLL5        0.0000 
     16 CA          6.3780  -11.0340   46.5300 C.3       4 GLL5        0.0000 
     17 CA         10.4650   -7.6160   49.7340 C.3       4 GLL5        0.0000 
     18 N           3.2070  -15.2970   52.7060 N.am      5 SEP1        0.0000 
     19 N           9.9690  -11.0200   55.5820 N.am      5 SEP1        0.0000 
     20 N          11.8390  -10.2030   47.5140 N.am      5 SEP1        0.0000 
     21 N           8.0530  -14.1250   42.9660 N.am      5 SEP1        0.0000 
     22 N           8.9010  -12.3310   41.8010 N.am      5 SEP1        0.0000 
     23 O           4.8070  -14.5730   54.1030 O.2       6 ALP2        0.0000 
     24 O          10.0130  -12.3120   45.5610 O.2       6 ALP2        0.0000 
     25 O           5.2880  -14.7680   44.1920 O.2       6 ALP2        0.0000 
     26 NZ          9.0230  -13.5750   42.2450 N.4       7 LYP3        0.0000 
     27 NZ          3.5890   -7.0880   40.1930 N.4       7 LYP3        0.0000 
     28 CA         10.8900  -12.2510   50.1620 C.3       8 GLP5        0.0000 
     29 CA         14.8360   -7.2780   48.6830 C.3       8 GLP5        0.0000 
     30 CA         14.5960  -10.6700   50.6310 C.3       8 GLP5        0.0000 
     31 CA         12.9800   -3.4820   49.7390 C.3       8 GLP5        0.0000 
     32 CA          8.2430   -4.0830   47.4060 C.3       8 GLP5        0.0000 
     33 CA          5.0470   -7.0010   49.3600 C.3       8 GLP5        0.0000 
     34 CA          4.3030   -6.3770   43.9370 C.3       8 GLP5        0.0000 
     35 CA         12.9660   -9.6740   54.4460 C.3       8 GLP5        0.0000 
     36 CA          7.8540  -14.7040   45.8670 C.3       8 GLP5        0.0000 
     37 CA          9.0070   -4.0950   51.0240 C.3       8 GLP5        0.0000 
     38 N           3.7330  -14.1215   51.8095 N.am      9 SEC1        0.0000 
     39 N           8.6760  -11.5180   54.8140 N.am      9 SEC1        0.0000 
     40 N          10.2315  -10.6160   47.4320 N.am      9 SEC1        0.0000 
     41 N           6.8895  -13.3185   42.4805 N.am      9 SEC1        0.0000 
     42 N           7.3135  -12.4215   41.8980 N.am      9 SEC1        0.0000 
     43 O           5.2995  -13.5485   53.3135 O.2      10 ALC2        0.0000 
     44 O           9.3185  -11.6705   46.4555 O.2      10 ALC2        0.0000 
     45 O           5.6415  -13.5700   45.2480 O.2      10 ALC2        0.0000 
     46 NZ          7.3745  -13.0435   42.1200 N.4      11 LYC3        0.0000 
     47 NZ          3.9255   -8.7990   41.0890 N.4      11 LYC3        0.0000 
     48 CA         10.6525  -10.4630   51.0315 C.3      12 GLC5        0.0000 
     49 CA         13.5380   -7.1565   50.0420 C.3      12 GLC5        0.0000 
     50 CA         13.4180   -8.8525   51.0160 C.3      12 GLC5        0.0000 
     51 CA         12.6100   -5.2585   50.5700 C.3      12 GLC5        0.0000 
     52 CA         12.9685   -6.9735   48.7210 C.3      12 GLC5        0.0000 
     53 CA          9.6720   -5.3760   48.0825 C.3      12 GLC5        0.0000 
     54 CA         12.0405   -5.0755   49.2490 C.3      12 GLC5        0.0000 
     55 CA          6.0395   -8.3480   48.9455 C.3      12 GLC5        0.0000 
     56 CA          5.2320   -8.3280   44.0510 C.3      12 GLC5        0.0000 
     57 CA         12.2210   -8.6544   52.9360 C.3      12 GLC5        0.0000 
     58 CA          9.9608  -10.5050   49.9898 C.3      12 GLC5        0.0000 
     59 CA          7.0393   -7.8800   49.5888 C.3      12 GLC5        0.0000 
     60 CA          7.4134  -12.7241   46.0494 C.3      12 GLC5        0.0000 
     61 CA         10.1394   -5.6979   50.7031 C.3      12 GLC5        0.0000 
@<TRIPOS>BOND
@<TRIPOS>SUBSTRUCTURE
     1 SEL1        1 GROUP        1 Z    SEL  0     ROOT SEL Z 0
     2 ALL2        5 GROUP        1 Z    ALL  0     **** ALL Z 1
     3 LYL3        8 GROUP        1 Z    LYL  0     **** LYL Z 2
     4 GLL5       10 GROUP        1 Z    GLL  0     **** GLL Z 4
     5 SEP1       18 GROUP        1 Z    SEP  0     **** SEP Z 7
     6 ALP2       23 GROUP        1 Z    ALP  0     **** ALP Z 8
     7 LYP3       26 GROUP        1 Z    LYP  0     **** LYP Z 9
     8 GLP5       28 GROUP        1 Z    GLP  0     **** GLP Z 11
     9 SEC1       38 GROUP        1 Z    SEC  0     **** SEC Z 14
    10 ALC2       43 GROUP        1 Z    ALC  0     **** ALC Z 15
    11 LYC3       46 GROUP        1 Z    LYC  0     **** LYC Z 16
    12 GLC5       48 GROUP        1 Z    GLC  0     **** GLC Z 18
@<TRIPOS>SET

