3p7n_FMN_2_ligand
  -OEChem-08111718373D

 50 52  0     1  0  0  0  0  0999 V2000
   10.8091   -8.8007   52.8114 H   0  0  0  0  0  0  0  0  0  0  0  0
    8.9326   -8.1953   48.4576 H   0  0  0  0  0  0  0  0  0  0  0  0
   12.5333   -6.4523   50.6431 H   0  0  0  0  0  0  0  0  0  0  0  0
   12.0370   -6.4672   52.1987 H   0  0  0  0  0  0  0  0  0  0  0  0
   12.9701   -7.6796   51.6278 H   0  0  0  0  0  0  0  0  0  0  0  0
   10.5792   -6.6686   47.9059 H   0  0  0  0  0  0  0  0  0  0  0  0
   11.1078   -5.7469   49.1460 H   0  0  0  0  0  0  0  0  0  0  0  0
   12.0398   -6.9604   48.5753 H   0  0  0  0  0  0  0  0  0  0  0  0
    7.4847   -8.9286   48.0752 H   0  0  0  0  0  0  0  0  0  0  0  0
    6.0509   -9.5125   48.5948 H   0  0  0  0  0  0  0  0  0  0  0  0
    6.6710  -10.2559   43.3051 H   0  0  0  0  0  0  0  0  0  0  0  0
    5.6682   -9.4170   44.2835 H   0  0  0  0  0  0  0  0  0  0  0  0
    7.0754  -11.7630   48.3415 H   0  0  0  0  0  0  0  0  0  0  0  0
    7.8365  -11.1246   45.0504 H   0  0  0  0  0  0  0  0  0  0  0  0
    5.5611  -10.4814   46.6951 H   0  0  0  0  0  0  0  0  0  0  0  0
    5.3497  -13.1606   53.1557 H   0  0  0  0  0  0  0  0  0  0  0  0
    8.7880  -11.8720   46.8376 H   0  0  0  0  0  0  0  0  0  0  0  0
    8.3465   -9.3598   46.4000 H   0  0  0  0  0  0  0  0  0  0  0  0
    5.8495  -12.5163   45.3252 H   0  0  0  0  0  0  0  0  0  0  0  0
   10.4150   -8.6750   51.9010 C   0  0  0  0  0  0  0  0  0  0  0  0
    9.3270   -8.3200   49.3680 C   0  0  0  0  0  0  0  0  0  0  0  0
   11.0090   -7.7940   51.0010 C   0  0  0  0  0  0  0  0  0  0  0  0
   10.4650   -7.6160   49.7340 C   0  0  0  0  0  0  0  0  0  0  0  0
    9.2740   -9.3800   51.5340 C   0  0  0  0  0  0  0  0  0  0  0  0
    8.7360   -9.1980   50.2670 C   0  0  0  0  0  0  0  0  0  0  0  0
    7.5410  -10.9530   52.0420 C   0  0  0  0  0  0  0  0  0  0  0  0
    6.9240  -11.8390   52.9190 C   0  0  0  0  0  0  0  0  0  0  0  0
    7.0070  -10.7670   50.7740 C   0  0  0  0  0  0  0  0  0  0  0  0
    5.2680  -12.3340   51.2610 C   0  0  0  0  0  0  0  0  0  0  0  0
   12.2400   -7.0350   51.4010 C   0  0  0  0  0  0  0  0  0  0  0  0
   11.1010   -6.6690   48.7590 C   0  0  0  0  0  0  0  0  0  0  0  0
    7.0320   -9.6950   48.5310 C   0  0  1  0  0  0  0  0  0  0  0  0
    6.1610  -10.2790   44.1650 C   0  0  2  0  0  0  0  0  0  0  0  0
    7.2730  -10.9790   47.7530 C   0  0  1  0  0  0  0  0  0  0  0  0
    7.1200  -10.4820   45.3220 C   0  0  2  0  0  0  0  0  0  0  0  0
    6.3780  -11.0340   46.5300 C   0  0  1  0  0  0  0  0  0  0  0  0
    8.6750  -10.2570   52.4190 N   0  0  0  0  0  0  0  0  0  0  0  0
    5.8750  -11.4560   50.3890 N   0  0  0  0  0  0  0  0  0  0  0  0
    5.7920  -12.5240   52.5240 N   0  0  0  0  0  0  0  0  0  0  0  0
    7.6060   -9.8890   49.8970 N   0  0  0  0  0  0  0  0  0  0  0  0
    3.4260  -12.6560   42.9050 O   0  5  0  0  0  0  0  0  0  0  0  0
    4.2620  -10.5100   41.9850 O   0  5  0  0  0  0  0  0  0  0  0  0
    7.3830  -12.0160   54.0460 O   0  0  0  0  0  0  0  0  0  0  0  0
    4.2590  -12.9460   50.9130 O   0  0  0  0  0  0  0  0  0  0  0  0
    5.7260  -12.5120   41.9950 O   0  0  0  0  0  0  0  0  0  0  0  0
    8.6240  -11.0290   47.3500 O   0  0  0  0  0  0  0  0  0  0  0  0
    7.7030   -9.2400   45.6440 O   0  0  0  0  0  0  0  0  0  0  0  0
    5.9950  -12.3720   46.3040 O   0  0  0  0  0  0  0  0  0  0  0  0
    5.2480  -11.3470   44.1450 O   0  0  0  0  0  0  0  0  0  0  0  0
    4.6360  -11.7700   42.7280 P   0  0  0  0  0  0  0  0  0  0  0  0
  1 20  1  0  0  0  0
  2 21  1  0  0  0  0
  3 30  1  0  0  0  0
  4 30  1  0  0  0  0
  5 30  1  0  0  0  0
  6 31  1  0  0  0  0
  7 31  1  0  0  0  0
  8 31  1  0  0  0  0
  9 32  1  0  0  0  0
 10 32  1  0  0  0  0
 11 33  1  0  0  0  0
 12 33  1  0  0  0  0
 13 34  1  0  0  0  0
 14 35  1  0  0  0  0
 15 36  1  0  0  0  0
 16 39  1  0  0  0  0
 17 46  1  0  0  0  0
 18 47  1  0  0  0  0
 19 48  1  0  0  0  0
 20 22  1  0  0  0  0
 20 24  2  0  0  0  0
 21 23  1  0  0  0  0
 21 25  2  0  0  0  0
 22 23  2  0  0  0  0
 22 30  1  0  0  0  0
 23 31  1  0  0  0  0
 24 25  1  0  0  0  0
 24 37  1  0  0  0  0
 25 40  1  0  0  0  0
 26 27  1  0  0  0  0
 26 28  1  0  0  0  0
 26 37  2  0  0  0  0
 27 39  1  0  0  0  0
 27 43  2  0  0  0  0
 28 38  2  0  0  0  0
 28 40  1  0  0  0  0
 29 38  1  0  0  0  0
 29 39  1  0  0  0  0
 29 44  2  0  0  0  0
 32 34  1  0  0  0  0
 32 40  1  0  0  0  0
 33 35  1  0  0  0  0
 33 49  1  0  0  0  0
 34 36  1  0  0  0  0
 34 46  1  0  0  0  0
 35 36  1  0  0  0  0
 35 47  1  0  0  0  0
 36 48  1  0  0  0  0
 41 50  1  0  0  0  0
 42 50  1  0  0  0  0
 45 50  2  0  0  0  0
 49 50  1  0  0  0  0
M  CHG  2  41  -1  42  -1
M  END
> <scpdb_id>
3p7n_2

$$$$
