#    Name: 10761
#    Modification time : Wed Aug  9 00:25:34 2017

@<TRIPOS>MOLECULE
10761
   55     0     3     0     0
SMALL
NO_CHARGES


@<TRIPOS>ATOM
      1 CA         33.3870   63.7460   74.7760 C.3       1 GLL5        0.0000 
      2 CA         30.8310   63.7300   74.5420 C.3       1 GLL5        0.0000 
      3 CA         29.5860   63.0390   73.8710 C.3       1 GLL5        0.0000 
      4 CA         26.1150   66.9230   76.8340 C.3       1 GLL5        0.0000 
      5 CA         27.2180   69.0950   76.6070 C.3       1 GLL5        0.0000 
      6 CA         29.3090   69.6850   78.0780 C.3       1 GLL5        0.0000 
      7 CA         28.9580   68.5180   78.9990 C.3       1 GLL5        0.0000 
      8 CA         27.6770   66.4700   79.4470 C.3       1 GLL5        0.0000 
      9 CA         30.3920   66.0130   77.7570 C.3       1 GLL5        0.0000 
     10 CA         31.1750   65.2360   76.6300 C.3       1 GLL5        0.0000 
     11 CA         30.1990   62.9940   76.8390 C.3       1 GLL5        0.0000 
     12 CA         28.3460   63.7410   74.4600 C.3       1 GLL5        0.0000 
     13 CA         28.9950   64.7750   75.4030 C.3       1 GLL5        0.0000 
     14 CA         26.9130   67.9700   77.6060 C.3       1 GLL5        0.0000 
     15 CA         29.0030   66.5620   77.2550 C.3       1 GLL5        0.0000 
     16 CA         34.2940   63.7500   71.6120 C.3       2 GLP5        0.0000 
     17 CA         32.9780   63.4420   71.3460 C.3       2 GLP5        0.0000 
     18 CA         32.6290   62.1330   71.0900 C.3       2 GLP5        0.0000 
     19 CA         24.4840   68.4490   80.4630 C.3       2 GLP5        0.0000 
     20 CA         30.6120   69.0550   74.3550 C.3       2 GLP5        0.0000 
     21 CA         32.2350   71.1070   78.5340 C.3       2 GLP5        0.0000 
     22 CA         26.9250   71.3850   80.2560 C.3       2 GLP5        0.0000 
     23 CA         32.3770   69.6260   78.1690 C.3       2 GLP5        0.0000 
     24 CA         25.1370   63.9530   81.5040 C.3       2 GLP5        0.0000 
     25 CA         25.5900   69.4400   80.8090 C.3       2 GLP5        0.0000 
     26 CA         31.0670   67.7800   74.0760 C.3       2 GLP5        0.0000 
     27 CA         29.8500   62.6530   80.8270 C.3       2 GLP5        0.0000 
     28 CA         29.7590   65.3060   70.5290 C.3       2 GLP5        0.0000 
     29 CA         28.3480   60.8220   71.2760 C.3       2 GLP5        0.0000 
     30 CA         26.6590   60.5410   74.7700 C.3       2 GLP5        0.0000 
     31 CA         28.6200   65.8870   71.0670 C.3       2 GLP5        0.0000 
     32 CA         33.7420   66.5020   79.3050 C.3       2 GLP5        0.0000 
     33 CA         25.9370   70.4590   79.9310 C.3       2 GLP5        0.0000 
     34 CA         33.8405   63.7480   73.1940 C.3       3 GLC5        0.0000 
     35 CA         31.9045   63.5860   72.9440 C.3       3 GLC5        0.0000 
     36 CA         31.1075   62.5860   72.4805 C.3       3 GLC5        0.0000 
     37 CA         25.2995   67.6860   78.6485 C.3       3 GLC5        0.0000 
     38 CA         28.9150   69.0750   75.4810 C.3       3 GLC5        0.0000 
     39 CA         29.9605   69.3700   76.2165 C.3       3 GLC5        0.0000 
     40 CA         30.7720   70.3960   78.3060 C.3       3 GLC5        0.0000 
     41 CA         28.1170   70.5350   79.1670 C.3       3 GLC5        0.0000 
     42 CA         30.6675   69.0720   78.5840 C.3       3 GLC5        0.0000 
     43 CA         26.4070   65.2115   80.4755 C.3       3 GLC5        0.0000 
     44 CA         26.6335   67.9550   80.1280 C.3       3 GLC5        0.0000 
     45 CA         31.3845   67.8195   77.9630 C.3       3 GLC5        0.0000 
     46 CA         31.1210   66.5080   75.3530 C.3       3 GLC5        0.0000 
     47 CA         30.0245   62.8235   78.8330 C.3       3 GLC5        0.0000 
     48 CA         29.9838   64.3452   72.3678 C.3       3 GLC5        0.0000 
     49 CA         28.6570   62.1060   72.7207 C.3       3 GLC5        0.0000 
     50 CA         27.8125   61.9655   74.4677 C.3       3 GLC5        0.0000 
     51 CA         28.6453   65.0725   72.9992 C.3       3 GLC5        0.0000 
     52 CA         30.4266   66.0722   74.6939 C.3       3 GLC5        0.0000 
     53 CA         32.2627   66.0632   78.2493 C.3       3 GLC5        0.0000 
     54 CA         26.7964   69.3868   78.8616 C.3       3 GLC5        0.0000 
     55 CA         30.1546   66.9227   75.5640 C.3       3 GLC5        0.0000 
@<TRIPOS>BOND
@<TRIPOS>SUBSTRUCTURE
     1 GLL5        1 GROUP        1 Z    GLL  0     ROOT GLL Z 4
     2 GLP5       16 GROUP        1 Z    GLP  0     **** GLP Z 11
     3 GLC5       34 GROUP        1 Z    GLC  0     **** GLC Z 18
@<TRIPOS>SET

