2ijg_FAD_2_ligand
  -OEChem-08111718373D

 84 89  0     1  0  0  0  0  0999 V2000
  -28.0769   35.8972    3.7253 H   0  0  0  0  0  0  0  0  0  0  0  0
  -26.6688   31.4761    5.0153 H   0  0  0  0  0  0  0  0  0  0  0  0
  -31.9348   30.7186    9.0875 H   0  0  0  0  0  0  0  0  0  0  0  0
  -29.1381   25.2605    7.7006 H   0  0  0  0  0  0  0  0  0  0  0  0
  -30.8872   24.8114    5.5068 H   0  0  0  0  0  0  0  0  0  0  0  0
  -32.1223   26.5703    5.9259 H   0  0  0  0  0  0  0  0  0  0  0  0
  -32.3273   22.9163    7.0691 H   0  0  0  0  0  0  0  0  0  0  0  0
  -32.6681   26.2165    8.4197 H   0  0  0  0  0  0  0  0  0  0  0  0
  -24.6496   35.7294    4.7730 H   0  0  0  0  0  0  0  0  0  0  0  0
  -25.4783   36.3918    3.5316 H   0  0  0  0  0  0  0  0  0  0  0  0
  -25.9334   36.6937    5.0706 H   0  0  0  0  0  0  0  0  0  0  0  0
  -24.5537   32.2325    5.5347 H   0  0  0  0  0  0  0  0  0  0  0  0
  -23.9771   33.4420    4.6012 H   0  0  0  0  0  0  0  0  0  0  0  0
  -24.4574   33.7496    6.1314 H   0  0  0  0  0  0  0  0  0  0  0  0
  -29.5610   23.6972    7.3453 H   0  0  0  0  0  0  0  0  0  0  0  0
  -30.2500   22.3658    7.9928 H   0  0  0  0  0  0  0  0  0  0  0  0
  -29.3222   29.8055    3.4028 H   0  0  0  0  0  0  0  0  0  0  0  0
  -29.9836   29.9017    4.8928 H   0  0  0  0  0  0  0  0  0  0  0  0
  -30.0059   26.5851    2.3859 H   0  0  0  0  0  0  0  0  0  0  0  0
  -30.7801   26.2341    3.7802 H   0  0  0  0  0  0  0  0  0  0  0  0
  -28.2313   28.9759    5.8256 H   0  0  0  0  0  0  0  0  0  0  0  0
  -28.6775   26.0963    4.9041 H   0  0  0  0  0  0  0  0  0  0  0  0
  -29.3629   28.3723    3.2468 H   0  0  0  0  0  0  0  0  0  0  0  0
  -34.0655   32.1497    2.6390 H   0  0  0  0  0  0  0  0  0  0  0  0
  -27.4425   30.8945    9.1821 H   0  0  0  0  0  0  0  0  0  0  0  0
  -26.9269   29.2932    8.7699 H   0  0  0  0  0  0  0  0  0  0  0  0
  -31.9133   23.9567    3.9375 H   0  0  0  0  0  0  0  0  0  0  0  0
  -34.1543   26.2563    5.4792 H   0  0  0  0  0  0  0  0  0  0  0  0
  -26.2873   29.4624    5.0467 H   0  0  0  0  0  0  0  0  0  0  0  0
  -27.0328   27.3704    3.4420 H   0  0  0  0  0  0  0  0  0  0  0  0
  -31.0005   28.6723    4.5519 H   0  0  0  0  0  0  0  0  0  0  0  0
  -27.7850   34.9790    3.9930 C   0  0  0  0  0  0  0  0  0  0  0  0
  -26.9720   32.3890    4.7420 C   0  0  0  0  0  0  0  0  0  0  0  0
  -31.2280   30.0320    8.9170 C   0  0  0  0  0  0  0  0  0  0  0  0
  -29.3960   26.1960    7.9420 C   0  0  0  0  0  0  0  0  0  0  0  0
  -26.4800   34.7850    4.4170 C   0  0  0  0  0  0  0  0  0  0  0  0
  -26.0420   33.4890    4.8150 C   0  0  0  0  0  0  0  0  0  0  0  0
  -28.7270   33.9040    3.9270 C   0  0  0  0  0  0  0  0  0  0  0  0
  -29.2860   28.2290    8.4690 C   0  0  0  0  0  0  0  0  0  0  0  0
  -28.2900   32.5660    4.2980 C   0  0  0  0  0  0  0  0  0  0  0  0
  -30.9840   33.0780    3.4570 C   0  0  0  0  0  0  0  0  0  0  0  0
  -30.6050   27.9310    8.3790 C   0  0  0  0  0  0  0  0  0  0  0  0
  -28.9350   29.5700    8.8220 C   0  0  0  0  0  0  0  0  0  0  0  0
  -32.3350   33.2310    2.9660 C   0  0  0  0  0  0  0  0  0  0  0  0
  -30.5780   31.7900    3.8160 C   0  0  0  0  0  0  0  0  0  0  0  0
  -32.7000   30.8290    3.4330 C   0  0  0  0  0  0  0  0  0  0  0  0
  -31.7940   24.5420    5.8310 C   0  0  1  0  0  0  0  0  0  0  0  0
  -32.4770   25.7710    6.4110 C   0  0  2  0  0  0  0  0  0  0  0  0
  -31.6150   23.6180    7.0560 C   0  0  1  0  0  0  0  0  0  0  0  0
  -31.9560   25.8310    7.8330 C   0  0  2  0  0  0  0  0  0  0  0  0
  -25.5550   36.0060    4.4510 C   0  0  0  0  0  0  0  0  0  0  0  0
  -24.6380   33.2040    5.3130 C   0  0  0  0  0  0  0  0  0  0  0  0
  -30.2470   22.9830    7.2060 C   0  0  1  0  0  0  0  0  0  0  0  0
  -29.1720   30.1050    4.3450 C   0  0  1  0  0  0  0  0  0  0  0  0
  -29.9730   26.0390    3.2230 C   0  0  2  0  0  0  0  0  0  0  0  0
  -28.2340   29.0580    4.8290 C   0  0  1  0  0  0  0  0  0  0  0  0
  -28.7720   26.5520    4.0190 C   0  0  2  0  0  0  0  0  0  0  0  0
  -29.1390   28.0290    4.1590 C   0  0  1  0  0  0  0  0  0  0  0  0
  -31.6690   28.8030    8.5940 N   0  0  0  0  0  0  0  0  0  0  0  0
  -29.9440   30.4590    9.0410 N   0  0  0  0  0  0  0  0  0  0  0  0
  -28.5120   27.1270    8.1920 N   0  0  0  0  0  0  0  0  0  0  0  0
  -30.0610   34.1640    3.5010 N   0  0  0  0  0  0  0  0  0  0  0  0
  -31.4200   30.6910    3.7980 N   0  0  0  0  0  0  0  0  0  0  0  0
  -33.1280   32.0750    2.9790 N   0  0  0  0  0  0  0  0  0  0  0  0
  -30.7040   26.6000    8.0360 N   0  0  0  0  0  0  0  0  0  0  0  0
  -29.2880   31.5220    4.2020 N   0  0  0  0  0  0  0  0  0  0  0  0
  -27.6620   29.9510    8.9340 N   0  0  0  0  0  0  0  0  0  0  0  0
  -27.4640   23.0230    5.9800 O   0  5  0  0  0  0  0  0  0  0  0  0
  -27.7770   24.0190    2.3160 O   0  5  0  0  0  0  0  0  0  0  0  0
  -32.8320   34.2760    2.5250 O   0  0  0  0  0  0  0  0  0  0  0  0
  -33.5000   29.8550    3.4290 O   0  0  0  0  0  0  0  0  0  0  0  0
  -28.5430   21.2040    4.3200 O   0  0  0  0  0  0  0  0  0  0  0  0
  -29.6580   22.4010    2.3400 O   0  0  0  0  0  0  0  0  0  0  0  0
  -31.7260   24.4700    8.2220 O   0  0  0  0  0  0  0  0  0  0  0  0
  -32.4990   23.9680    4.7480 O   0  0  0  0  0  0  0  0  0  0  0  0
  -33.8810   25.8170    6.3350 O   0  0  0  0  0  0  0  0  0  0  0  0
  -26.9330   29.3230    4.2960 O   0  0  0  0  0  0  0  0  0  0  0  0
  -27.5510   26.5350    3.2590 O   0  0  0  0  0  0  0  0  0  0  0  0
  -30.3580   28.0030    4.9250 O   0  0  0  0  0  0  0  0  0  0  0  0
  -29.9400   22.2590    6.0440 O   0  0  0  0  0  0  0  0  0  0  0  0
  -30.0940   24.6610    2.8090 O   0  0  0  0  0  0  0  0  0  0  0  0
  -28.7700   23.3090    4.5310 O   0  0  0  0  0  0  0  0  0  0  0  0
  -28.4660   22.0490    5.5190 P   0  0  2  0  0  0  0  0  0  0  0  0
  -29.0330   23.5440    2.9310 P   0  0  2  0  0  0  0  0  0  0  0  0
  1 32  1  0  0  0  0
  2 33  1  0  0  0  0
  3 34  1  0  0  0  0
  4 35  1  0  0  0  0
  5 47  1  0  0  0  0
  6 48  1  0  0  0  0
  7 49  1  0  0  0  0
  8 50  1  0  0  0  0
  9 51  1  0  0  0  0
 10 51  1  0  0  0  0
 11 51  1  0  0  0  0
 12 52  1  0  0  0  0
 13 52  1  0  0  0  0
 14 52  1  0  0  0  0
 15 53  1  0  0  0  0
 16 53  1  0  0  0  0
 17 54  1  0  0  0  0
 18 54  1  0  0  0  0
 19 55  1  0  0  0  0
 20 55  1  0  0  0  0
 21 56  1  0  0  0  0
 22 57  1  0  0  0  0
 23 58  1  0  0  0  0
 24 64  1  0  0  0  0
 25 67  1  0  0  0  0
 26 67  1  0  0  0  0
 27 75  1  0  0  0  0
 28 76  1  0  0  0  0
 29 77  1  0  0  0  0
 30 78  1  0  0  0  0
 31 79  1  0  0  0  0
 32 36  1  0  0  0  0
 32 38  2  0  0  0  0
 33 37  1  0  0  0  0
 33 40  2  0  0  0  0
 34 59  1  0  0  0  0
 34 60  2  0  0  0  0
 35 61  2  0  0  0  0
 35 65  1  0  0  0  0
 36 37  2  0  0  0  0
 36 51  1  0  0  0  0
 37 52  1  0  0  0  0
 38 40  1  0  0  0  0
 38 62  1  0  0  0  0
 39 42  1  0  0  0  0
 39 43  2  0  0  0  0
 39 61  1  0  0  0  0
 40 66  1  0  0  0  0
 41 44  1  0  0  0  0
 41 45  1  0  0  0  0
 41 62  2  0  0  0  0
 42 59  2  0  0  0  0
 42 65  1  0  0  0  0
 43 60  1  0  0  0  0
 43 67  1  0  0  0  0
 44 64  1  0  0  0  0
 44 70  2  0  0  0  0
 45 63  2  0  0  0  0
 45 66  1  0  0  0  0
 46 63  1  0  0  0  0
 46 64  1  0  0  0  0
 46 71  2  0  0  0  0
 47 48  1  0  0  0  0
 47 49  1  0  0  0  0
 47 75  1  0  0  0  0
 48 50  1  0  0  0  0
 48 76  1  0  0  0  0
 49 53  1  0  0  0  0
 49 74  1  0  0  0  0
 50 65  1  0  0  0  0
 50 74  1  0  0  0  0
 53 80  1  0  0  0  0
 54 56  1  0  0  0  0
 54 66  1  0  0  0  0
 55 57  1  0  0  0  0
 55 81  1  0  0  0  0
 56 58  1  0  0  0  0
 56 77  1  0  0  0  0
 57 58  1  0  0  0  0
 57 78  1  0  0  0  0
 58 79  1  0  0  0  0
 68 83  1  0  0  0  0
 69 84  1  0  0  0  0
 72 83  2  0  0  0  0
 73 84  2  0  0  0  0
 80 83  1  0  0  0  0
 81 84  1  0  0  0  0
 82 83  1  0  0  0  0
 82 84  1  0  0  0  0
M  CHG  2  68  -1  69  -1
M  END
> <scpdb_id>
2ijg_2

$$$$
