1vpw_HPA_1_ligand
  -OEChem-08111718373D

 14 15  0     0  0  0  0  0  0999 V2000
   57.3976    1.4814   -9.5825 H   0  0  0  0  0  0  0  0  0  0  0  0
   58.3770    7.4914  -11.1827 H   0  0  0  0  0  0  0  0  0  0  0  0
   58.6623    3.3047   -8.7902 H   0  0  0  0  0  0  0  0  0  0  0  0
   59.1482    5.9303   -9.3550 H   0  0  0  0  0  0  0  0  0  0  0  0
   57.3510    2.3550  -10.0670 C   0  0  0  0  0  0  0  0  0  0  0  0
   58.0900    6.5370  -11.1010 C   0  0  0  0  0  0  0  0  0  0  0  0
   57.1470    4.6620  -11.4630 C   0  0  0  0  0  0  0  0  0  0  0  0
   56.3700    3.5800  -11.9460 C   0  0  0  0  0  0  0  0  0  0  0  0
   57.9270    4.4850  -10.3430 C   0  0  0  0  0  0  0  0  0  0  0  0
   56.5410    2.4330  -11.1750 N   0  0  0  0  0  0  0  0  0  0  0  0
   58.0760    3.3650   -9.5980 N   0  0  0  0  0  0  0  0  0  0  0  0
   58.5250    5.7020  -10.1030 N   0  0  0  0  0  0  0  0  0  0  0  0
   57.2650    5.9630  -11.9330 N   0  0  0  0  0  0  0  0  0  0  0  0
   55.6070    3.5550  -12.9200 O   0  0  0  0  0  0  0  0  0  0  0  0
  1  5  1  0  0  0  0
  2  6  1  0  0  0  0
  3 11  1  0  0  0  0
  4 12  1  0  0  0  0
  5 10  2  0  0  0  0
  5 11  1  0  0  0  0
  6 12  1  0  0  0  0
  6 13  2  0  0  0  0
  7  8  1  0  0  0  0
  7  9  2  0  0  0  0
  7 13  1  0  0  0  0
  8 10  1  0  0  0  0
  8 14  2  0  0  0  0
  9 11  1  0  0  0  0
  9 12  1  0  0  0  0
M  END
> <scpdb_id>
1vpw_1

$$$$
