@<TRIPOS>MOLECULE
2zla_VDB_1_ligand
   80    82     1     0     0
SMALL
NO_CHARGES


@<TRIPOS>ATOM
     1 C29          7.7080    -0.7030    29.6480 C.3          1 VDB500   0.0000
     2 C26          8.3390     0.4630    28.8660 C.3          1 VDB500   0.0000
     3 C25          9.3880     0.1080    27.7760 C.3          1 VDB500   0.0000
     4 C27          8.7280    -0.6770    26.6030 C.3          1 VDB500   0.0000
     5 C28          7.5970     0.0120    25.8140 C.3          1 VDB500   0.0000
     6 O3          10.4170    -0.6760    28.3790 O.3          1 VDB500   0.0000
     7 C23          9.9310     1.4700    27.3260 C.3          1 VDB500   0.0000
     8 S22         11.0540     2.4000    28.4360 S.3          1 VDB500   0.0000
     9 C20         12.7510     1.7340    28.1020 C.3          1 VDB500   0.0000
    10 C21         13.7020     1.8980    29.3020 C.3          1 VDB500   0.0000
    11 C17         13.3900     2.4290    26.8390 C.2          1 VDB500   0.0000
    12 C16         14.1690     1.7960    25.9310 C.2          1 VDB500   0.0000
    13 C15         14.6420     2.7810    24.8370 C.3          1 VDB500   0.0000
    14 C14         14.6170     4.0420    25.7050 C.3          1 VDB500   0.0000
    15 C13         13.2500     3.9330    26.4580 C.3          1 VDB500   0.0000
    16 C18         11.9060     4.0760    25.6320 C.3          1 VDB500   0.0000
    17 C12         13.3040     5.0020    27.6070 C.3          1 VDB500   0.0000
    18 C11         13.5390     6.4660    27.0870 C.3          1 VDB500   0.0000
    19 C9          14.7020     6.5800    26.0650 C.3          1 VDB500   0.0000
    20 C8          14.6260     5.4610    25.0140 C.2          1 VDB500   0.0000
    21 C7          14.5180     5.6460    23.6470 C.2          1 VDB500   0.0000
    22 C6          14.4590     6.7360    22.7790 C.2          1 VDB500   0.0000
    23 C5          14.3230     6.9030    21.4170 C.2          1 VDB500   0.0000
    24 C10         14.1860     5.7260    20.4430 C.3          1 VDB500   0.0000
    25 C1          14.7600     6.0020    19.0460 C.3          1 VDB500   0.0000
    26 O1          14.3860     4.9000    18.2230 O.3          1 VDB500   0.0000
    27 C4          14.2880     8.3570    20.8840 C.3          1 VDB500   0.0000
    28 C3          14.7180     8.5090    19.3980 C.3          1 VDB500   0.0000
    29 O2          16.1420     8.5230    19.4250 O.3          1 VDB500   0.0000
    30 C2          14.1950     7.3410    18.4730 C.3          1 VDB500   0.0000
    31 O4          14.5660     7.6240    17.0890 O.3          1 VDB500   0.0000
    32 C30         13.4490     8.1870    16.3590 C.3          1 VDB500   0.0000
    33 C31         13.9670     8.1520    14.9150 C.3          1 VDB500   0.0000
    34 O5          13.7130     6.8990    14.2860 O.3          1 VDB500   0.0000
    35 H1           7.0548    -0.3428    30.3140 H            1 VDB500   0.0000
    36 H2           7.2343    -1.3128    29.0126 H            1 VDB500   0.0000
    37 H3           8.4250    -1.2109    30.1254 H            1 VDB500   0.0000
    38 H4           8.7871     1.0618    29.5299 H            1 VDB500   0.0000
    39 H5           7.5963     0.9598    28.4171 H            1 VDB500   0.0000
    40 H6           8.3520    -1.5212    26.9851 H            1 VDB500   0.0000
    41 H7           9.4521    -0.9001    25.9504 H            1 VDB500   0.0000
    42 H8           7.2690    -0.6024    25.0964 H            1 VDB500   0.0000
    43 H9           6.8441     0.2321    26.4342 H            1 VDB500   0.0000
    44 H10          7.9443     0.8532    25.3995 H            1 VDB500   0.0000
    45 H11         10.5117    -0.4188    29.3407 H            1 VDB500   0.0000
    46 H12          9.1398     2.0568    27.1535 H            1 VDB500   0.0000
    47 H13         10.4263     1.3183    26.4706 H            1 VDB500   0.0000
    48 H14         12.6662     0.7569    27.9067 H            1 VDB500   0.0000
    49 H15         14.5998     1.5240    29.0694 H            1 VDB500   0.0000
    50 H16         13.7928     2.8685    29.5251 H            1 VDB500   0.0000
    51 H17         13.3310     1.4080    30.0908 H            1 VDB500   0.0000
    52 H18         14.4060     0.8250    25.9632 H            1 VDB500   0.0000
    53 H19         14.0060     2.8330    24.0671 H            1 VDB500   0.0000
    54 H20         15.5583     2.5668    24.4985 H            1 VDB500   0.0000
    55 H21         15.3622     3.9967    26.3703 H            1 VDB500   0.0000
    56 H22         11.7779     5.0316    25.3667 H            1 VDB500   0.0000
    57 H23         11.9566     3.5062    24.8118 H            1 VDB500   0.0000
    58 H24         11.1350     3.7804    26.1961 H            1 VDB500   0.0000
    59 H25         14.0504     4.7625    28.2279 H            1 VDB500   0.0000
    60 H26         12.4364     4.9775    28.1037 H            1 VDB500   0.0000
    61 H27         13.7478     7.0508    27.8709 H            1 VDB500   0.0000
    62 H28         12.6991     6.7847    26.6477 H            1 VDB500   0.0000
    63 H29         15.5727     6.5121    26.5520 H            1 VDB500   0.0000
    64 H30         14.6461     7.4656    25.6039 H            1 VDB500   0.0000
    65 H31         14.4700     4.7761    23.1561 H            1 VDB500   0.0000
    66 H32         14.5334     7.6086    23.2617 H            1 VDB500   0.0000
    67 H33         13.2146     5.5089    20.3467 H            1 VDB500   0.0000
    68 H34         14.6665     4.9394    20.8307 H            1 VDB500   0.0000
    69 H35         15.7571     6.0558    19.0992 H            1 VDB500   0.0000
    70 H36         13.5178     4.5227    18.5454 H            1 VDB500   0.0000
    71 H37         14.9033     8.9104    21.4454 H            1 VDB500   0.0000
    72 H38         13.3534     8.7008    20.9755 H            1 VDB500   0.0000
    73 H39         14.3855     9.3838    19.0456 H            1 VDB500   0.0000
    74 H40         16.4573     9.2923    19.9807 H            1 VDB500   0.0000
    75 H41         13.1972     7.3137    18.5329 H            1 VDB500   0.0000
    76 H42         13.2560     9.1228    16.6539 H            1 VDB500   0.0000
    77 H43         12.6265     7.6280    16.4643 H            1 VDB500   0.0000
    78 H44         14.9535     8.3154    14.9220 H            1 VDB500   0.0000
    79 H45         13.5133     8.8735    14.3919 H            1 VDB500   0.0000
    80 H46         12.8815     6.4963    14.6688 H            1 VDB500   0.0000
@<TRIPOS>BOND
     1    1    2       1
     2    2    3       1
     3    3    4       1
     4    3    6       1
     5    3    7       1
     6    4    5       1
     7    7    8       1
     8    8    9       1
     9    9   10       1
    10    9   11       1
    11   11   12       2
    12   11   15       1
    13   12   13       1
    14   13   14       1
    15   14   15       1
    16   14   20       1
    17   15   16       1
    18   15   17       1
    19   17   18       1
    20   18   19       1
    21   19   20       1
    22   20   21       2
    23   21   22       1
    24   22   23       2
    25   23   24       1
    26   23   27       1
    27   24   25       1
    28   25   26       1
    29   25   30       1
    30   27   28       1
    31   28   29       1
    32   28   30       1
    33   30   31       1
    34   31   32       1
    35   32   33       1
    36   33   34       1
    37    1   35       1
    38    1   36       1
    39    1   37       1
    40    2   38       1
    41    2   39       1
    42    4   40       1
    43    4   41       1
    44    5   42       1
    45    5   43       1
    46    5   44       1
    47    6   45       1
    48    7   46       1
    49    7   47       1
    50    9   48       1
    51   10   49       1
    52   10   50       1
    53   10   51       1
    54   12   52       1
    55   13   53       1
    56   13   54       1
    57   14   55       1
    58   16   56       1
    59   16   57       1
    60   16   58       1
    61   17   59       1
    62   17   60       1
    63   18   61       1
    64   18   62       1
    65   19   63       1
    66   19   64       1
    67   21   65       1
    68   22   66       1
    69   24   67       1
    70   24   68       1
    71   25   69       1
    72   26   70       1
    73   27   71       1
    74   27   72       1
    75   28   73       1
    76   29   74       1
    77   30   75       1
    78   32   76       1
    79   32   77       1
    80   33   78       1
    81   33   79       1
    82   34   80       1
@<TRIPOS>SUBSTRUCTURE
     1 VDB500      1 GROUP             4 A     VDB     0 **** VDB A 500
