3sfi_3SF_1_ligand
  -OEChem-08111718373D

 42 44  0     1  0  0  0  0  0999 V2000
   27.5634   -2.2946   -6.5035 H   0  0  0  0  0  0  0  0  0  0  0  0
   27.6744   -1.1073   -4.2831 H   0  0  0  0  0  0  0  0  0  0  0  0
   28.6337   -9.5427   -3.7832 H   0  0  0  0  0  0  0  0  0  0  0  0
   27.6047  -10.1835   -2.6890 H   0  0  0  0  0  0  0  0  0  0  0  0
   27.8505   -9.2310   -6.0562 H   0  0  0  0  0  0  0  0  0  0  0  0
   26.2774   -8.8935   -6.3359 H   0  0  0  0  0  0  0  0  0  0  0  0
   29.1140  -11.6520   -4.1531 H   0  0  0  0  0  0  0  0  0  0  0  0
   27.6673  -12.1761   -3.6060 H   0  0  0  0  0  0  0  0  0  0  0  0
   25.7596  -11.2152   -6.0040 H   0  0  0  0  0  0  0  0  0  0  0  0
   26.7791  -11.0101   -7.2631 H   0  0  0  0  0  0  0  0  0  0  0  0
   25.7726   -9.8131   -4.0941 H   0  0  0  0  0  0  0  0  0  0  0  0
   29.8708  -13.4361   -5.3627 H   0  0  0  0  0  0  0  0  0  0  0  0
   28.5237  -14.1831   -4.8204 H   0  0  0  0  0  0  0  0  0  0  0  0
   28.2746  -15.3758   -6.7724 H   0  0  0  0  0  0  0  0  0  0  0  0
   29.2958  -14.3934   -7.5839 H   0  0  0  0  0  0  0  0  0  0  0  0
   31.1112  -15.2517   -6.2999 H   0  0  0  0  0  0  0  0  0  0  0  0
   30.0791  -16.2666   -5.5440 H   0  0  0  0  0  0  0  0  0  0  0  0
   27.4850   -2.7770   -5.6310 C   0  0  0  0  0  0  0  0  0  0  0  0
   27.5520   -2.0900   -4.4220 C   0  0  0  0  0  0  0  0  0  0  0  0
   27.0540   -5.9320   -3.9120 C   0  0  0  0  0  0  0  0  0  0  0  0
   27.2310   -4.6070   -4.3150 C   0  0  0  0  0  0  0  0  0  0  0  0
   26.7850   -8.0180   -4.0090 C   0  0  0  0  0  0  0  0  0  0  0  0
   28.1340  -12.7520   -6.2760 C   0  0  0  0  0  0  0  0  0  0  0  0
   27.8190  -10.1100   -3.6630 C   0  0  2  0  0  0  0  0  0  0  0  0
   26.9090   -9.5000   -5.8530 C   0  0  1  0  0  0  0  0  0  0  0  0
   28.1250  -11.5100   -4.1950 C   0  0  1  0  0  0  0  0  0  0  0  0
   26.6780  -10.9240   -6.2720 C   0  0  1  0  0  0  0  0  0  0  0  0
   26.6580   -9.4290   -4.3560 C   0  0  2  0  0  0  0  0  0  0  0  0
   28.9790  -13.8040   -5.6260 C   0  0  1  0  0  0  0  0  0  0  0  0
   29.1210  -14.8470   -6.7100 C   0  0  1  0  0  0  0  0  0  0  0  0
   30.2630  -15.7730   -6.3940 C   0  0  1  0  0  0  0  0  0  0  0  0
   30.3770  -16.7380   -7.5340 C   0  0  1  0  0  0  0  0  0  0  0  0
   27.3060   -4.1520   -5.5870 N   0  0  0  0  0  0  0  0  0  0  0  0
   26.9490   -6.9290   -4.7970 N   0  0  0  0  0  0  0  0  0  0  0  0
   26.9720   -6.3700   -2.6320 N   0  0  0  0  0  0  0  0  0  0  0  0
   27.6800  -11.7420   -5.5940 N   0  0  0  0  0  0  0  0  0  0  0  0
   27.8130  -12.8650   -7.4260 O   0  0  0  0  0  0  0  0  0  0  0  0
   26.7870   -7.7040   -2.7920 O   0  0  0  0  0  0  0  0  0  0  0  0
   30.9880  -16.1930   -8.5540 F   0  0  0  0  0  0  0  0  0  0  0  0
   31.0810  -17.7350   -7.0670 F   0  0  0  0  0  0  0  0  0  0  0  0
   29.1990  -17.1750   -7.9360 F   0  0  0  0  0  0  0  0  0  0  0  0
   27.3750   -3.3250   -3.2040 S   0  0  0  0  0  0  0  0  0  0  0  0
  1 18  1  0  0  0  0
  2 19  1  0  0  0  0
  3 24  1  0  0  0  0
  4 24  1  0  0  0  0
  5 25  1  0  0  0  0
  6 25  1  0  0  0  0
  7 26  1  0  0  0  0
  8 26  1  0  0  0  0
  9 27  1  0  0  0  0
 10 27  1  0  0  0  0
 11 28  1  0  0  0  0
 12 29  1  0  0  0  0
 13 29  1  0  0  0  0
 14 30  1  0  0  0  0
 15 30  1  0  0  0  0
 16 31  1  0  0  0  0
 17 31  1  0  0  0  0
 18 19  2  0  0  0  0
 18 33  1  0  0  0  0
 19 42  1  0  0  0  0
 20 21  1  0  0  0  0
 20 34  1  0  0  0  0
 20 35  2  0  0  0  0
 21 33  2  0  0  0  0
 21 42  1  0  0  0  0
 22 28  1  0  0  0  0
 22 34  2  0  0  0  0
 22 38  1  0  0  0  0
 23 29  1  0  0  0  0
 23 36  1  0  0  0  0
 23 37  2  0  0  0  0
 24 26  1  0  0  0  0
 24 28  1  0  0  0  0
 25 27  1  0  0  0  0
 25 28  1  0  0  0  0
 26 36  1  0  0  0  0
 27 36  1  0  0  0  0
 29 30  1  0  0  0  0
 30 31  1  0  0  0  0
 31 32  1  0  0  0  0
 32 39  1  0  0  0  0
 32 40  1  0  0  0  0
 32 41  1  0  0  0  0
 35 38  1  0  0  0  0
M  END
> <scpdb_id>
3sfi_1

$$$$
