3wgw_T2B_1_ligand
  -OEChem-08111718373D

 37 38  0     1  0  0  0  0  0999 V2000
  -41.6281   -6.2246   48.5135 H   0  0  0  0  0  0  0  0  0  0  0  0
  -43.8718   -2.7728   48.1054 H   0  0  0  0  0  0  0  0  0  0  0  0
  -42.0934   -6.7291   46.2021 H   0  0  0  0  0  0  0  0  0  0  0  0
  -44.2663   -3.2201   45.8049 H   0  0  0  0  0  0  0  0  0  0  0  0
  -44.1469   -1.9477   41.5996 H   0  0  0  0  0  0  0  0  0  0  0  0
  -47.4674   -4.2461   42.6329 H   0  0  0  0  0  0  0  0  0  0  0  0
  -47.8100   -2.4797   41.3526 H   0  0  0  0  0  0  0  0  0  0  0  0
  -46.7964   -1.2080   41.5014 H   0  0  0  0  0  0  0  0  0  0  0  0
  -46.6218   -4.0876   39.0268 H   0  0  0  0  0  0  0  0  0  0  0  0
  -48.0765   -3.6855   39.6504 H   0  0  0  0  0  0  0  0  0  0  0  0
  -45.7484   -2.0684   39.4238 H   0  0  0  0  0  0  0  0  0  0  0  0
  -47.2618   -0.8014   38.1766 H   0  0  0  0  0  0  0  0  0  0  0  0
  -46.9165   -0.0754   39.5980 H   0  0  0  0  0  0  0  0  0  0  0  0
  -42.9120   -3.2419   50.1354 H   0  0  0  0  0  0  0  0  0  0  0  0
  -47.2101   -3.1274   37.0355 H   0  0  0  0  0  0  0  0  0  0  0  0
  -42.1870   -5.6090   47.9580 C   0  0  0  0  0  0  0  0  0  0  0  0
  -43.4870   -3.6000   47.6960 C   0  0  0  0  0  0  0  0  0  0  0  0
  -42.4590   -5.8930   46.6110 C   0  0  0  0  0  0  0  0  0  0  0  0
  -43.7370   -3.8600   46.3620 C   0  0  0  0  0  0  0  0  0  0  0  0
  -44.5410   -2.6940   42.1360 C   0  0  0  0  0  0  0  0  0  0  0  0
  -46.4880   -4.0740   42.7390 C   0  0  0  0  0  0  0  0  0  0  0  0
  -45.9260   -3.0090   42.0040 C   0  0  0  0  0  0  0  0  0  0  0  0
  -42.7190   -4.4470   48.4920 C   0  0  0  0  0  0  0  0  0  0  0  0
  -43.2400   -5.0190   45.8220 C   0  0  0  0  0  0  0  0  0  0  0  0
  -44.3220   -4.5340   43.7440 C   0  0  0  0  0  0  0  0  0  0  0  0
  -43.7590   -3.4000   42.9830 C   0  0  0  0  0  0  0  0  0  0  0  0
  -45.7610   -4.9190   43.6190 C   0  0  0  0  0  0  0  0  0  0  0  0
  -46.8850   -2.1470   41.1690 C   0  0  1  0  0  0  0  0  0  0  0  0
  -47.3460   -3.3980   39.0310 C   0  0  1  0  0  0  0  0  0  0  0  0
  -46.7230   -2.0980   39.6460 C   0  0  1  0  0  0  0  0  0  0  0  0
  -47.3580   -0.8640   39.1700 N   0  3  0  0  0  0  0  0  0  0  0  0
  -42.5130   -4.0880   49.7820 O   0  0  0  0  0  0  0  0  0  0  0  0
  -47.9150   -3.3860   37.6960 O   0  0  0  0  0  0  0  0  0  0  0  0
  -43.5080   -5.2930   44.5100 O   0  0  0  0  0  0  0  0  0  0  0  0
  -41.7430   -2.9780   43.0810 I   0  0  0  0  0  0  0  0  0  0  0  0
  -46.7250   -6.5280   44.7480 I   0  0  0  0  0  0  0  0  0  0  0  0
  -48.3285   -0.8742   39.4109 H   0  0  0  0  0  0  0  0  0  0  0  0
  1 16  1  0  0  0  0
  2 17  1  0  0  0  0
  3 18  1  0  0  0  0
  4 19  1  0  0  0  0
  5 20  1  0  0  0  0
  6 21  1  0  0  0  0
  7 28  1  0  0  0  0
  8 28  1  0  0  0  0
  9 29  1  0  0  0  0
 10 29  1  0  0  0  0
 11 30  1  0  0  0  0
 12 31  1  0  0  0  0
 13 31  1  0  0  0  0
 14 32  1  0  0  0  0
 15 33  1  0  0  0  0
 16 18  1  0  0  0  0
 16 23  2  0  0  0  0
 17 19  2  0  0  0  0
 17 23  1  0  0  0  0
 18 24  2  0  0  0  0
 19 24  1  0  0  0  0
 20 22  2  0  0  0  0
 20 26  1  0  0  0  0
 21 22  1  0  0  0  0
 21 27  2  0  0  0  0
 22 28  1  0  0  0  0
 23 32  1  0  0  0  0
 24 34  1  0  0  0  0
 25 26  2  0  0  0  0
 25 27  1  0  0  0  0
 25 34  1  0  0  0  0
 26 35  1  0  0  0  0
 27 36  1  0  0  0  0
 28 30  1  0  0  0  0
 29 30  1  0  0  0  0
 29 33  1  0  0  0  0
 30 31  1  0  0  0  0
 31 37  1  0  0  0  0
M  CHG  1  31   1
M  END
> <scpdb_id>
3wgw_1

$$$$
