@<TRIPOS>MOLECULE
3wgw_T2B_1_ligand
   37    38     1     0     0
SMALL
NO_CHARGES


@<TRIPOS>ATOM
     1 O4         -47.9150    -3.3860    37.6960 O.3          1 T2B301   0.0000
     2 C17        -47.3460    -3.3980    39.0310 C.3          1 T2B301   0.0000
     3 C15        -46.7230    -2.0980    39.6460 C.3          1 T2B301   0.0000
     4 N1         -47.3580    -0.8640    39.1700 N.4          1 T2B301   1.0000
     5 C13        -46.8850    -2.1470    41.1690 C.3          1 T2B301   0.0000
     6 C1         -45.9260    -3.0090    42.0040 C.ar         1 T2B301   0.0000
     7 C11        -44.5410    -2.6940    42.1360 C.ar         1 T2B301   0.0000
     8 C9         -43.7590    -3.4000    42.9830 C.ar         1 T2B301   0.0000
     9 I3         -41.7430    -2.9780    43.0810 I            1 T2B301   0.0000
    10 C7         -44.3220    -4.5340    43.7440 C.ar         1 T2B301   0.0000
    11 C5         -45.7610    -4.9190    43.6190 C.ar         1 T2B301   0.0000
    12 I1         -46.7250    -6.5280    44.7480 I            1 T2B301   0.0000
    13 C3         -46.4880    -4.0740    42.7390 C.ar         1 T2B301   0.0000
    14 O2         -43.5080    -5.2930    44.5100 O.3          1 T2B301   0.0000
    15 C2         -43.2400    -5.0190    45.8220 C.ar         1 T2B301   0.0000
    16 C12        -42.4590    -5.8930    46.6110 C.ar         1 T2B301   0.0000
    17 C10        -42.1870    -5.6090    47.9580 C.ar         1 T2B301   0.0000
    18 C8         -42.7190    -4.4470    48.4920 C.ar         1 T2B301   0.0000
    19 O1         -42.5130    -4.0880    49.7820 O.3          1 T2B301   0.0000
    20 C6         -43.4870    -3.6000    47.6960 C.ar         1 T2B301   0.0000
    21 C4         -43.7370    -3.8600    46.3620 C.ar         1 T2B301   0.0000
    22 H1         -47.2101    -3.1274    37.0355 H            1 T2B301   0.0000
    23 H2         -46.6218    -4.0876    39.0268 H            1 T2B301   0.0000
    24 H3         -48.0765    -3.6855    39.6504 H            1 T2B301   0.0000
    25 H4         -45.7484    -2.0684    39.4238 H            1 T2B301   0.0000
    26 H5         -46.9165    -0.0754    39.5980 H            1 T2B301   0.0000
    27 H6         -47.2618    -0.8014    38.1766 H            1 T2B301   0.0000
    28 H7         -47.8100    -2.4797    41.3526 H            1 T2B301   0.0000
    29 H8         -46.7964    -1.2080    41.5014 H            1 T2B301   0.0000
    30 H9         -44.1469    -1.9477    41.5996 H            1 T2B301   0.0000
    31 H10        -47.4674    -4.2461    42.6329 H            1 T2B301   0.0000
    32 H11        -42.0934    -6.7291    46.2021 H            1 T2B301   0.0000
    33 H12        -41.6281    -6.2246    48.5135 H            1 T2B301   0.0000
    34 H13        -42.9120    -3.2419    50.1354 H            1 T2B301   0.0000
    35 H14        -43.8718    -2.7728    48.1054 H            1 T2B301   0.0000
    36 H15        -44.2663    -3.2201    45.8049 H            1 T2B301   0.0000
    37 H16        -48.3285    -0.8741    39.4109 H            1 T2B301   0.0000
@<TRIPOS>BOND
     1    1    2       1
     2    2    3       1
     3    3    4       1
     4    3    5       1
     5    5    6       1
     6    6    7      ar
     7    6   13      ar
     8    7    8      ar
     9    8    9       1
    10    8   10      ar
    11   10   11      ar
    12   10   14       1
    13   11   12       1
    14   11   13      ar
    15   14   15       1
    16   15   16      ar
    17   15   21      ar
    18   16   17      ar
    19   17   18      ar
    20   18   19       1
    21   18   20      ar
    22   20   21      ar
    23    1   22       1
    24    2   23       1
    25    2   24       1
    26    3   25       1
    27    4   26       1
    28    4   27       1
    29    5   28       1
    30    5   29       1
    31    7   30       1
    32   13   31       1
    33   16   32       1
    34   17   33       1
    35   19   34       1
    36   20   35       1
    37   21   36       1
    38    4   37       1
@<TRIPOS>SUBSTRUCTURE
     1 T2B301      1 GROUP             4 A     T2B     0 **** T2B A 301
