@<TRIPOS>MOLECULE
1xms_ANP_1_ligand
   44    46     1     0     0
SMALL
NO_CHARGES


@<TRIPOS>ATOM
     1 PG          20.8340     7.8590     7.9310 P.3          1 ANP400   0.0000
     2 O1G         20.4570     7.5950     6.5820 O.co2        1 ANP400   0.0000
     3 O2G         20.4890     6.7580     8.8680 O.co2        1 ANP400  -1.0000
     4 O3G         20.1770     9.0810     8.3230 O.co2        1 ANP400  -1.0000
     5 PB          23.6680     6.8710     8.1300 P.3          1 ANP400   0.0000
     6 O1B         23.2030     5.6090     7.5150 O.co2        1 ANP400   0.0000
     7 O2B         24.7190     7.5820     7.4310 O.co2        1 ANP400  -1.0000
     8 N3B         22.4560     7.8460     8.2830 N.3          1 ANP400   0.0000
     9 PA          25.3810     7.5630    10.3570 P.3          1 ANP400   0.0000
    10 O1A         26.7900     7.6380     9.7440 O.co2        1 ANP400   0.0000
    11 O2A         24.8820     8.9540    10.3720 O.co2        1 ANP400  -1.0000
    12 O3A         24.4650     6.5630     9.4760 O.3          1 ANP400   0.0000
    13 O5'         25.6960     6.8740    11.8290 O.3          1 ANP400   0.0000
    14 C5'         26.9570     6.0770    12.2090 C.3          1 ANP400   0.0000
    15 C4'         27.2310     6.2270    13.5110 C.3          1 ANP400   0.0000
    16 O4'         27.5750     7.6460    13.3780 O.3          1 ANP400   0.0000
    17 C3'         26.0150     6.3300    14.5050 C.3          1 ANP400   0.0000
    18 O3'         25.3390     5.2430    15.0120 O.3          1 ANP400   0.0000
    19 C2'         26.6250     7.4310    15.4790 C.3          1 ANP400   0.0000
    20 O2'         27.3650     6.6310    16.5470 O.3          1 ANP400   0.0000
    21 C1'         27.6020     8.2510    14.6600 C.3          1 ANP400   0.0000
    22 N9          27.2520     9.5480    14.5840 N.pl3        1 ANP400   0.0000
    23 C8          26.6000    10.2340    13.5560 C.2          1 ANP400   0.0000
    24 N7          26.3690    11.4790    13.7150 N.2          1 ANP400   0.0000
    25 C5          26.8910    11.6900    14.9360 C.ar         1 ANP400   0.0000
    26 C6          26.9420    12.8750    15.6680 C.ar         1 ANP400   0.0000
    27 N6          26.4850    14.1090    15.3450 N.pl3        1 ANP400   0.0000
    28 N1          27.5560    12.8250    16.9490 N.ar         1 ANP400   0.0000
    29 C2          28.0800    11.6010    17.4200 C.ar         1 ANP400   0.0000
    30 N3          28.0810    10.4060    16.7940 N.ar         1 ANP400   0.0000
    31 C4          27.4490    10.5260    15.5120 C.ar         1 ANP400   0.0000
    32 H3B         22.4561     8.0242     9.2670 H            1 ANP400   0.0000
    33 H5'1        27.7310     6.4084    11.6694 H            1 ANP400   0.0000
    34 H5'2        26.8052     5.1080    12.0140 H            1 ANP400   0.0000
    35 H4'         27.9810     5.6532    13.8401 H            1 ANP400   0.0000
    36 H3'         25.3195     6.8260    13.9852 H            1 ANP400   0.0000
    37 H6          24.6091     5.5577    15.6187 H            1 ANP400   0.0000
    38 H2'         25.9098     8.0040    15.8792 H            1 ANP400   0.0000
    39 H8          28.3109     6.4840    16.2577 H            1 ANP400   0.0000
    40 H1'         28.5190     8.1717    15.0508 H            1 ANP400   0.0000
    41 H10         26.3221     9.7625    12.7190 H            1 ANP400   0.0000
    42 H11         26.5987    14.8679    15.9862 H            1 ANP400   0.0000
    43 H12         26.0340    14.2608    14.4655 H            1 ANP400   0.0000
    44 H13         28.5010    11.6228    18.3268 H            1 ANP400   0.0000
@<TRIPOS>BOND
     1    1    2      ar
     2    1    3      ar
     3    1    4      ar
     4    1    8       1
     5    5    6      ar
     6    5    7      ar
     7    5    8       1
     8    5   12       1
     9    9   10      ar
    10    9   11      ar
    11    9   12       1
    12    9   13       1
    13   13   14       1
    14   14   15       1
    15   15   16       1
    16   15   17       1
    17   16   21       1
    18   17   18       1
    19   17   19       1
    20   19   20       1
    21   19   21       1
    22   21   22       1
    23   22   23       1
    24   22   31       1
    25   23   24       2
    26   24   25       1
    27   25   26      ar
    28   25   31      ar
    29   26   27       1
    30   26   28      ar
    31   28   29      ar
    32   29   30      ar
    33   30   31      ar
    34   29   44       1
    35   27   43       1
    36   27   42       1
    37    8   32       1
    38   23   41       1
    39   14   33       1
    40   14   34       1
    41   15   35       1
    42   17   36       1
    43   18   37       1
    44   19   38       1
    45   20   39       1
    46   21   40       1
@<TRIPOS>SUBSTRUCTURE
     1 ANP400      1 GROUP             4 A     ANP     0 **** ANP A 400
