1xms_ANP_1_ligand
  -OEChem-08111718373D

 44 46  0     1  0  0  0  0  0999 V2000
   28.5010   11.6228   18.3268 H   0  0  0  0  0  0  0  0  0  0  0  0
   26.3221    9.7625   12.7190 H   0  0  0  0  0  0  0  0  0  0  0  0
   25.3195    6.8260   13.9852 H   0  0  0  0  0  0  0  0  0  0  0  0
   25.9098    8.0040   15.8792 H   0  0  0  0  0  0  0  0  0  0  0  0
   27.9810    5.6532   13.8401 H   0  0  0  0  0  0  0  0  0  0  0  0
   28.5190    8.1717   15.0508 H   0  0  0  0  0  0  0  0  0  0  0  0
   27.7310    6.4084   11.6694 H   0  0  0  0  0  0  0  0  0  0  0  0
   26.8052    5.1080   12.0140 H   0  0  0  0  0  0  0  0  0  0  0  0
   26.5987   14.8679   15.9862 H   0  0  0  0  0  0  0  0  0  0  0  0
   26.0340   14.2608   14.4655 H   0  0  0  0  0  0  0  0  0  0  0  0
   22.4561    8.0242    9.2670 H   0  0  0  0  0  0  0  0  0  0  0  0
   24.6091    5.5577   15.6187 H   0  0  0  0  0  0  0  0  0  0  0  0
   28.3109    6.4840   16.2577 H   0  0  0  0  0  0  0  0  0  0  0  0
   28.0800   11.6010   17.4200 C   0  0  0  0  0  0  0  0  0  0  0  0
   26.6000   10.2340   13.5560 C   0  0  0  0  0  0  0  0  0  0  0  0
   26.8910   11.6900   14.9360 C   0  0  0  0  0  0  0  0  0  0  0  0
   27.4490   10.5260   15.5120 C   0  0  0  0  0  0  0  0  0  0  0  0
   26.9420   12.8750   15.6680 C   0  0  0  0  0  0  0  0  0  0  0  0
   26.0150    6.3300   14.5050 C   0  0  1  0  0  0  0  0  0  0  0  0
   26.6250    7.4310   15.4790 C   0  0  2  0  0  0  0  0  0  0  0  0
   27.2310    6.2270   13.5110 C   0  0  1  0  0  0  0  0  0  0  0  0
   27.6020    8.2510   14.6600 C   0  0  2  0  0  0  0  0  0  0  0  0
   26.9570    6.0770   12.2090 C   0  0  1  0  0  0  0  0  0  0  0  0
   28.0810   10.4060   16.7940 N   0  0  0  0  0  0  0  0  0  0  0  0
   27.5560   12.8250   16.9490 N   0  0  0  0  0  0  0  0  0  0  0  0
   26.3690   11.4790   13.7150 N   0  0  0  0  0  0  0  0  0  0  0  0
   27.2520    9.5480   14.5840 N   0  0  0  0  0  0  0  0  0  0  0  0
   26.4850   14.1090   15.3450 N   0  0  0  0  0  0  0  0  0  0  0  0
   22.4560    7.8460    8.2830 N   0  0  2  0  0  0  0  0  0  0  0  0
   20.4890    6.7580    8.8680 O   0  5  0  0  0  0  0  0  0  0  0  0
   20.1770    9.0810    8.3230 O   0  5  0  0  0  0  0  0  0  0  0  0
   24.7190    7.5820    7.4310 O   0  5  0  0  0  0  0  0  0  0  0  0
   24.8820    8.9540   10.3720 O   0  5  0  0  0  0  0  0  0  0  0  0
   20.4570    7.5950    6.5820 O   0  0  0  0  0  0  0  0  0  0  0  0
   23.2030    5.6090    7.5150 O   0  0  0  0  0  0  0  0  0  0  0  0
   26.7900    7.6380    9.7440 O   0  0  0  0  0  0  0  0  0  0  0  0
   27.5750    7.6460   13.3780 O   0  0  0  0  0  0  0  0  0  0  0  0
   25.3390    5.2430   15.0120 O   0  0  0  0  0  0  0  0  0  0  0  0
   27.3650    6.6310   16.5470 O   0  0  0  0  0  0  0  0  0  0  0  0
   25.6960    6.8740   11.8290 O   0  0  0  0  0  0  0  0  0  0  0  0
   24.4650    6.5630    9.4760 O   0  0  0  0  0  0  0  0  0  0  0  0
   20.8340    7.8590    7.9310 P   0  0  0  0  0  0  0  0  0  0  0  0
   23.6680    6.8710    8.1300 P   0  0  2  0  0  0  0  0  0  0  0  0
   25.3810    7.5630   10.3570 P   0  0  1  0  0  0  0  0  0  0  0  0
  1 14  1  0  0  0  0
  2 15  1  0  0  0  0
  3 19  1  0  0  0  0
  4 20  1  0  0  0  0
  5 21  1  0  0  0  0
  6 22  1  0  0  0  0
  7 23  1  0  0  0  0
  8 23  1  0  0  0  0
  9 28  1  0  0  0  0
 10 28  1  0  0  0  0
 11 29  1  0  0  0  0
 12 38  1  0  0  0  0
 13 39  1  0  0  0  0
 14 24  1  0  0  0  0
 14 25  2  0  0  0  0
 15 26  2  0  0  0  0
 15 27  1  0  0  0  0
 16 17  1  0  0  0  0
 16 18  2  0  0  0  0
 16 26  1  0  0  0  0
 17 24  2  0  0  0  0
 17 27  1  0  0  0  0
 18 25  1  0  0  0  0
 18 28  1  0  0  0  0
 19 20  1  0  0  0  0
 19 21  1  0  0  0  0
 19 38  1  0  0  0  0
 20 22  1  0  0  0  0
 20 39  1  0  0  0  0
 21 23  1  0  0  0  0
 21 37  1  0  0  0  0
 22 27  1  0  0  0  0
 22 37  1  0  0  0  0
 23 40  1  0  0  0  0
 29 42  1  0  0  0  0
 29 43  1  0  0  0  0
 30 42  1  0  0  0  0
 31 42  1  0  0  0  0
 32 43  1  0  0  0  0
 33 44  1  0  0  0  0
 34 42  2  0  0  0  0
 35 43  2  0  0  0  0
 36 44  2  0  0  0  0
 40 44  1  0  0  0  0
 41 43  1  0  0  0  0
 41 44  1  0  0  0  0
M  CHG  4  30  -1  31  -1  32  -1  33  -1
M  END
> <scpdb_id>
1xms_1

$$$$
