1bdi_HPA_1_ligand
  -OEChem-08111718373D

 14 15  0     0  0  0  0  0  0999 V2000
   58.5704    7.6148  -11.3936 H   0  0  0  0  0  0  0  0  0  0  0  0
   57.8317    1.6864   -9.3599 H   0  0  0  0  0  0  0  0  0  0  0  0
   59.3033    6.2483   -9.3989 H   0  0  0  0  0  0  0  0  0  0  0  0
   58.9612    3.6293   -8.6803 H   0  0  0  0  0  0  0  0  0  0  0  0
   58.3140    6.6610  -11.2370 C   0  0  0  0  0  0  0  0  0  0  0  0
   57.7520    2.5170   -9.9110 C   0  0  0  0  0  0  0  0  0  0  0  0
   57.4650    4.7120  -11.4730 C   0  0  0  0  0  0  0  0  0  0  0  0
   56.7760    3.5490  -11.8970 C   0  0  0  0  0  0  0  0  0  0  0  0
   58.2060    4.6630  -10.3190 C   0  0  0  0  0  0  0  0  0  0  0  0
   57.5460    5.9780  -12.0390 N   0  0  0  0  0  0  0  0  0  0  0  0
   56.9830    2.4690  -11.0450 N   0  0  0  0  0  0  0  0  0  0  0  0
   58.7320    5.9290  -10.1550 N   0  0  0  0  0  0  0  0  0  0  0  0
   58.3950    3.6000   -9.5040 N   0  0  0  0  0  0  0  0  0  0  0  0
   56.0710    3.3940  -12.9010 O   0  0  0  0  0  0  0  0  0  0  0  0
  1  5  1  0  0  0  0
  2  6  1  0  0  0  0
  3 12  1  0  0  0  0
  4 13  1  0  0  0  0
  5 10  2  0  0  0  0
  5 12  1  0  0  0  0
  6 11  2  0  0  0  0
  6 13  1  0  0  0  0
  7  8  1  0  0  0  0
  7  9  2  0  0  0  0
  7 10  1  0  0  0  0
  8 11  1  0  0  0  0
  8 14  2  0  0  0  0
  9 12  1  0  0  0  0
  9 13  1  0  0  0  0
M  END
> <scpdb_id>
1bdi_1

$$$$
