2xrl_DXT_1_ligand
  -OEChem-08111718373D

 55 58  0     1  0  0  0  0  0999 V2000
   21.3246   42.8394   35.8899 H   0  0  0  0  0  0  0  0  0  0  0  0
   20.0893   41.0320   36.8143 H   0  0  0  0  0  0  0  0  0  0  0  0
   22.8281   42.4964   34.0570 H   0  0  0  0  0  0  0  0  0  0  0  0
   19.1427   38.2467   35.4229 H   0  0  0  0  0  0  0  0  0  0  0  0
   21.6062   37.4799   36.4989 H   0  0  0  0  0  0  0  0  0  0  0  0
   20.1646   33.7255   37.8373 H   0  0  0  0  0  0  0  0  0  0  0  0
   22.2279   34.7951   36.6256 H   0  0  0  0  0  0  0  0  0  0  0  0
   19.5406   35.6621   36.3901 H   0  0  0  0  0  0  0  0  0  0  0  0
   18.7408   39.4386   37.4566 H   0  0  0  0  0  0  0  0  0  0  0  0
   18.7695   37.8268   37.7175 H   0  0  0  0  0  0  0  0  0  0  0  0
   20.0620   38.7416   38.1163 H   0  0  0  0  0  0  0  0  0  0  0  0
   21.5477   33.7999   39.5273 H   0  0  0  0  0  0  0  0  0  0  0  0
   22.9221   32.9211   39.6014 H   0  0  0  0  0  0  0  0  0  0  0  0
   22.8450   34.2366   38.6368 H   0  0  0  0  0  0  0  0  0  0  0  0
   22.7604   31.5373   36.3448 H   0  0  0  0  0  0  0  0  0  0  0  0
   23.5610   32.8997   36.7565 H   0  0  0  0  0  0  0  0  0  0  0  0
   23.6381   31.5843   37.7211 H   0  0  0  0  0  0  0  0  0  0  0  0
   16.6129   31.9947   33.4456 H   0  0  0  0  0  0  0  0  0  0  0  0
   17.8926   33.0793   33.0144 H   0  0  0  0  0  0  0  0  0  0  0  0
   23.6609   41.1127   32.3654 H   0  0  0  0  0  0  0  0  0  0  0  0
   19.2878   35.6845   38.3491 H   0  0  0  0  0  0  0  0  0  0  0  0
   23.0673   33.7158   34.7491 H   0  0  0  0  0  0  0  0  0  0  0  0
   21.4140   41.9290   35.4860 C   0  0  0  0  0  0  0  0  0  0  0  0
   20.6730   40.8590   36.0210 C   0  0  0  0  0  0  0  0  0  0  0  0
   22.2710   41.7410   34.4020 C   0  0  0  0  0  0  0  0  0  0  0  0
   21.5810   39.3900   34.3930 C   0  0  0  0  0  0  0  0  0  0  0  0
   20.7160   39.5660   35.4940 C   0  0  0  0  0  0  0  0  0  0  0  0
   22.3380   40.4740   33.8040 C   0  0  0  0  0  0  0  0  0  0  0  0
   21.6520   38.0150   33.8100 C   0  0  0  0  0  0  0  0  0  0  0  0
   19.3680   32.7270   35.1430 C   0  0  0  0  0  0  0  0  0  0  0  0
   21.3650   36.9360   34.5940 C   0  0  0  0  0  0  0  0  0  0  0  0
   19.9130   32.4240   36.3490 C   0  0  0  0  0  0  0  0  0  0  0  0
   19.7970   33.8880   34.4660 C   0  0  0  0  0  0  0  0  0  0  0  0
   21.5490   35.7060   34.1290 C   0  0  0  0  0  0  0  0  0  0  0  0
   18.1220   32.1360   34.8010 C   0  0  0  0  0  0  0  0  0  0  0  0
   19.9080   38.4040   36.0470 C   0  0  1  0  0  0  0  0  0  0  0  0
   20.7970   37.1680   36.0010 C   0  0  1  0  0  0  0  0  0  0  0  0
   20.7650   33.3720   37.1200 C   0  0  2  0  0  0  0  0  0  0  0  0
   21.2730   34.6360   36.3750 C   0  0  2  0  0  0  0  0  0  0  0  0
   20.4480   35.8840   36.7470 C   0  0  1  0  0  0  0  0  0  0  0  0
   21.1900   34.4320   34.8780 C   0  0  1  0  0  0  0  0  0  0  0  0
   19.3180   38.6220   37.4590 C   0  0  0  0  0  0  0  0  0  0  0  0
   22.3300   33.4620   39.0040 C   0  0  0  0  0  0  0  0  0  0  0  0
   23.0520   32.1140   37.1080 C   0  0  0  0  0  0  0  0  0  0  0  0
   17.4890   32.4280   33.6570 N   0  0  0  0  0  0  0  0  0  0  0  0
   21.8390   32.5980   37.8650 N   0  3  2  0  0  0  0  0  0  0  0  0
   19.1760   34.3570   33.4350 O   0  0  0  0  0  0  0  0  0  0  0  0
   22.0420   35.5100   32.9620 O   0  0  0  0  0  0  0  0  0  0  0  0
   17.5310   31.2760   35.5320 O   0  0  0  0  0  0  0  0  0  0  0  0
   23.1440   40.3300   32.7120 O   0  0  0  0  0  0  0  0  0  0  0  0
   22.2050   37.9140   32.6650 O   0  5  0  0  0  0  0  0  0  0  0  0
   19.7000   31.2940   36.9650 O   0  5  0  0  0  0  0  0  0  0  0  0
   20.2170   35.9900   38.1410 O   0  0  0  0  0  0  0  0  0  0  0  0
   22.1460   33.4140   34.5040 O   0  0  0  0  0  0  0  0  0  0  0  0
   21.3996   31.7953   38.2683 H   0  0  0  0  0  0  0  0  0  0  0  0
  1 23  1  0  0  0  0
  2 24  1  0  0  0  0
  3 25  1  0  0  0  0
  4 36  1  0  0  0  0
  5 37  1  0  0  0  0
  6 38  1  0  0  0  0
  7 39  1  0  0  0  0
  8 40  1  0  0  0  0
  9 42  1  0  0  0  0
 10 42  1  0  0  0  0
 11 42  1  0  0  0  0
 12 43  1  0  0  0  0
 13 43  1  0  0  0  0
 14 43  1  0  0  0  0
 15 44  1  0  0  0  0
 16 44  1  0  0  0  0
 17 44  1  0  0  0  0
 18 45  1  0  0  0  0
 19 45  1  0  0  0  0
 20 50  1  0  0  0  0
 21 53  1  0  0  0  0
 22 54  1  0  0  0  0
 23 24  1  0  0  0  0
 23 25  2  0  0  0  0
 24 27  2  0  0  0  0
 25 28  1  0  0  0  0
 26 27  1  0  0  0  0
 26 28  2  0  0  0  0
 26 29  1  0  0  0  0
 27 36  1  0  0  0  0
 28 50  1  0  0  0  0
 29 31  2  0  0  0  0
 29 51  1  0  0  0  0
 30 32  2  0  0  0  0
 30 33  1  0  0  0  0
 30 35  1  0  0  0  0
 31 34  1  0  0  0  0
 31 37  1  0  0  0  0
 32 38  1  0  0  0  0
 32 52  1  0  0  0  0
 33 41  1  0  0  0  0
 33 47  2  0  0  0  0
 34 41  1  0  0  0  0
 34 48  2  0  0  0  0
 35 45  1  0  0  0  0
 35 49  2  0  0  0  0
 36 37  1  0  0  0  0
 36 42  1  0  0  0  0
 37 40  1  0  0  0  0
 38 39  1  0  0  0  0
 38 46  1  0  0  0  0
 39 40  1  0  0  0  0
 39 41  1  0  0  0  0
 40 53  1  0  0  0  0
 41 54  1  0  0  0  0
 43 46  1  0  0  0  0
 44 46  1  0  0  0  0
 46 55  1  0  0  0  0
M  CHG  3  52  -1  46   1  51  -1
M  END
> <scpdb_id>
2xrl_1

$$$$
