@<TRIPOS>MOLECULE
3d57_4HY_1_ligand
   29    30     1     0     0
SMALL
NO_CHARGES


@<TRIPOS>ATOM
     1 C1          46.2090    -1.2550    35.0260 C.ar         1 4HY500   0.0000
     2 C2          45.1620    -0.0570    39.8930 C.ar         1 4HY500   0.0000
     3 C3          47.2970    -1.2380    36.0000 C.ar         1 4HY500   0.0000
     4 C4          45.3710    -0.1540    41.2450 C.ar         1 4HY500   0.0000
     5 C5          46.9890    -1.2590    37.3670 C.ar         1 4HY500   0.0000
     6 C6          45.2270     0.9260    42.0730 C.ar         1 4HY500   0.0000
     7 C7          45.6550    -1.2970    37.8130 C.ar         1 4HY500   0.0000
     8 C8          44.8410     2.1940    41.5330 C.ar         1 4HY500   0.0000
     9 C9          44.5820    -1.3260    36.8420 C.ar         1 4HY500   0.0000
    10 C10         44.6200     2.3260    40.1370 C.ar         1 4HY500   0.0000
    11 C11         44.8950    -1.2980    35.4330 C.ar         1 4HY500   0.0000
    12 C12         44.7800     1.1900    39.3080 C.ar         1 4HY500   0.0000
    13 C13         46.5260    -1.2370    33.5740 C.3          1 4HY500   0.0000
    14 C14         46.6150    -2.6500    32.8650 C.2          1 4HY500   0.0000
    15 I1          48.5430    -1.3100    38.8270 I            1 4HY500   0.0000
    16 I2          45.5920     0.6820    44.0980 I            1 4HY500   0.0000
    17 I3          42.5540    -1.4870    37.5100 I            1 4HY500   0.0000
    18 O3          46.0870    -3.6410    33.4590 O.co2        1 4HY500   0.0000
    19 O2          45.3350    -1.2520    39.1600 O.3          1 4HY500   0.0000
    20 O1          44.6690     3.2860    42.3940 O.3          1 4HY500   0.0000
    21 O4          47.2080    -2.6790    31.7540 O.co2        1 4HY500  -1.0000
    22 H1          48.2492    -1.2117    35.6956 H            1 4HY500   0.0000
    23 H2          45.6352    -1.0359    41.6355 H            1 4HY500   0.0000
    24 H3          44.3555     3.2074    39.7456 H            1 4HY500   0.0000
    25 H4          44.1598    -1.3098    34.7552 H            1 4HY500   0.0000
    26 H5          44.6272     1.2592    38.3222 H            1 4HY500   0.0000
    27 H6          47.4086    -0.7810    33.4592 H            1 4HY500   0.0000
    28 H7          45.8146    -0.7073    33.1121 H            1 4HY500   0.0000
    29 H8          44.8158     3.1757    43.3770 H            1 4HY500   0.0000
@<TRIPOS>BOND
     1    1    3      ar
     2    1   11      ar
     3    1   13       1
     4    2    4      ar
     5    2   12      ar
     6    2   19       1
     7    3    5      ar
     8    4    6      ar
     9    5    7      ar
    10    5   15       1
    11    6    8      ar
    12    6   16       1
    13    7    9      ar
    14    7   19       1
    15    8   10      ar
    16    8   20       1
    17    9   11      ar
    18    9   17       1
    19   10   12      ar
    20   13   14       1
    21   14   18      ar
    22   14   21      ar
    23    3   22       1
    24    4   23       1
    25   10   24       1
    26   11   25       1
    27   12   26       1
    28   13   27       1
    29   13   28       1
    30   20   29       1
@<TRIPOS>SUBSTRUCTURE
     1 4HY500      1 GROUP             4 A     4HY     0 **** 4HY A 500
