#    Name: 24113
#    Modification time : Tue Aug  8 20:26:23 2017

@<TRIPOS>MOLECULE
24113
   28     0     3     0     0
SMALL
NO_CHARGES


@<TRIPOS>ATOM
      1 CA         59.5460   26.5050   71.0970 C.3       1 GLL5        0.0000 
      2 CA         60.7210   25.8860   68.8320 C.3       1 GLL5        0.0000 
      3 CA         57.1590   25.6780   71.5900 C.3       1 GLL5        0.0000 
      4 CA         56.6980   26.9140   73.4300 C.3       1 GLL5        0.0000 
      5 CA         59.7090   22.5970   61.8630 C.3       1 GLL5        0.0000 
      6 CA         56.6870   19.5380   62.1540 C.3       1 GLL5        0.0000 
      7 CA         57.1040   24.9890   70.3270 C.3       1 GLL5        0.0000 
      8 CA         57.5340   21.3170   63.8110 C.3       1 GLL5        0.0000 
      9 CA         62.4200   24.1850   73.3870 C.3       2 GLP5        0.0000 
     10 CA         64.1090   26.4750   70.1460 C.3       2 GLP5        0.0000 
     11 CA         56.5670   23.5560   75.0170 C.3       2 GLP5        0.0000 
     12 CA         60.0240   25.1130   59.0030 C.3       2 GLP5        0.0000 
     13 CA         60.4900   20.5980   58.9700 C.3       2 GLP5        0.0000 
     14 CA         60.9020   19.2090   64.2190 C.3       2 GLP5        0.0000 
     15 CA         56.6230   16.9830   64.4190 C.3       2 GLP5        0.0000 
     16 CA         58.1600   22.0910   71.4550 C.3       2 GLP5        0.0000 
     17 CA         61.3510   29.3270   68.8350 C.3       2 GLP5        0.0000 
     18 CA         60.9830   25.3450   72.2420 C.3       3 GLC5        0.0000 
     19 CA         62.4150   26.1805   69.4890 C.3       3 GLC5        0.0000 
     20 CA         56.8630   24.6170   73.3035 C.3       3 GLC5        0.0000 
     21 CA         56.6325   25.2350   74.2235 C.3       3 GLC5        0.0000 
     22 CA         59.8665   23.8550   60.4330 C.3       3 GLC5        0.0000 
     23 CA         60.0995   21.5975   60.4165 C.3       3 GLC5        0.0000 
     24 CA         60.3055   20.9030   63.0410 C.3       3 GLC5        0.0000 
     25 CA         56.6550   18.2605   63.2865 C.3       3 GLC5        0.0000 
     26 CA         57.6320   23.5400   70.8910 C.3       3 GLC5        0.0000 
     27 CA         59.4555   20.5532   64.0950 C.3       3 GLC5        0.0000 
     28 CA         60.5859   27.6674   69.3624 C.3       3 GLC5        0.0000 
@<TRIPOS>BOND
@<TRIPOS>SUBSTRUCTURE
     1 GLL5        1 GROUP        1 Z    GLL  0     ROOT GLL Z 4
     2 GLP5        9 GROUP        1 Z    GLP  0     **** GLP Z 11
     3 GLC5       18 GROUP        1 Z    GLC  0     **** GLC Z 18
@<TRIPOS>SET

