#    Name: 27089
#    Modification time : Tue Aug  8 23:44:21 2017

@<TRIPOS>MOLECULE
27089
   39     0     9     0     0
SMALL
NO_CHARGES


@<TRIPOS>ATOM
      1 N          -9.4420   -1.5580  -16.7950 N.am      1 SEL1        0.0000 
      2 N         -11.2370   -2.6200  -17.5030 N.am      1 SEL1        0.0000 
      3 NZ         -9.4420   -1.5580  -16.7950 N.4       2 LYL3        0.0000 
      4 CA        -11.5580   -1.9730  -12.1250 C.3       3 GLL5        0.0000 
      5 CA        -12.2380   -0.6100  -12.1210 C.3       3 GLL5        0.0000 
      6 CA        -11.6220    0.2170  -10.9950 C.3       3 GLL5        0.0000 
      7 CA        -11.0700   -0.7000   -9.8980 C.3       3 GLL5        0.0000 
      8 CA         -8.9070   -2.1600   -9.6760 C.3       3 GLL5        0.0000 
      9 CA         -8.9480   -4.9510  -13.6700 C.3       3 GLL5        0.0000 
     10 CA         -9.4030   -0.9520  -12.8410 C.3       3 GLL5        0.0000 
     11 CA         -9.0770   -3.7100  -17.7150 C.3       3 GLL5        0.0000 
     12 CA         -9.9440   -4.0340  -12.9890 C.3       3 GLL5        0.0000 
     13 N          -7.7450    0.3350  -15.1620 N.am      4 SEP1        0.0000 
     14 N         -13.8500   -1.0980  -17.8810 N.am      4 SEP1        0.0000 
     15 NZ         -7.7450    0.3350  -15.1620 N.4       5 LYP3        0.0000 
     16 CA        -13.3310   -5.3300  -12.3170 C.3       6 GLP5        0.0000 
     17 CA        -10.4690    2.3850  -14.5110 C.3       6 GLP5        0.0000 
     18 CA         -9.7170    3.0180  -13.5380 C.3       6 GLP5        0.0000 
     19 CA        -13.6230    0.0700   -6.6550 C.3       6 GLP5        0.0000 
     20 CA         -9.0710   -0.6110   -5.9380 C.3       6 GLP5        0.0000 
     21 CA        -12.3560   -7.3390  -12.9320 C.3       6 GLP5        0.0000 
     22 CA         -8.0040   -1.1320  -21.1090 C.3       6 GLP5        0.0000 
     23 CA        -11.6000   -6.2960  -19.1850 C.3       6 GLP5        0.0000 
     24 CA        -15.1930   -1.4530  -11.0920 C.3       6 GLP5        0.0000 
     25 N          -8.5935   -0.6115  -15.9785 N.am      7 SEC1        0.0000 
     26 N         -12.5435   -1.8590  -17.6920 N.am      7 SEC1        0.0000 
     27 NZ         -8.5935   -0.6115  -15.9785 N.4       8 LYC3        0.0000 
     28 CA        -12.4445   -3.6515  -12.2210 C.3       9 GLC5        0.0000 
     29 CA        -11.3535    0.8875  -13.3160 C.3       9 GLC5        0.0000 
     30 CA        -10.6695    1.6175  -12.2665 C.3       9 GLC5        0.0000 
     31 CA        -12.3465   -0.3150   -8.2765 C.3       9 GLC5        0.0000 
     32 CA        -10.0705   -0.6555   -7.9180 C.3       9 GLC5        0.0000 
     33 CA         -8.9890   -1.3855   -7.8070 C.3       9 GLC5        0.0000 
     34 CA        -10.6520   -6.1450  -13.3010 C.3       9 GLC5        0.0000 
     35 CA         -9.9360    0.7165  -13.6760 C.3       9 GLC5        0.0000 
     36 CA         -8.5405   -2.4210  -19.4120 C.3       9 GLC5        0.0000 
     37 CA        -11.5008   -4.4763  -12.3625 C.3       9 GLC5        0.0000 
     38 CA        -10.2575   -5.2353  -18.1550 C.3       9 GLC5        0.0000 
     39 CA        -13.3730   -0.9212  -11.0474 C.3       9 GLC5        0.0000 
@<TRIPOS>BOND
@<TRIPOS>SUBSTRUCTURE
     1 SEL1        1 GROUP        1 Z    SEL  0     ROOT SEL Z 0
     2 LYL3        3 GROUP        1 Z    LYL  0     **** LYL Z 2
     3 GLL5        4 GROUP        1 Z    GLL  0     **** GLL Z 4
     4 SEP1       13 GROUP        1 Z    SEP  0     **** SEP Z 7
     5 LYP3       15 GROUP        1 Z    LYP  0     **** LYP Z 9
     6 GLP5       16 GROUP        1 Z    GLP  0     **** GLP Z 11
     7 SEC1       25 GROUP        1 Z    SEC  0     **** SEC Z 14
     8 LYC3       27 GROUP        1 Z    LYC  0     **** LYC Z 16
     9 GLC5       28 GROUP        1 Z    GLC  0     **** GLC Z 18
@<TRIPOS>SET

