3hgg_CHD_1_ligand
  -OEChem-08111718373D

 68 71  0     1  0  0  0  0  0999 V2000
   -5.0138   -3.5544  -12.5344 H   0  0  0  0  0  0  0  0  0  0  0  0
   -5.8673   -2.2982  -13.1346 H   0  0  0  0  0  0  0  0  0  0  0  0
   -4.7493   -4.3602  -14.5716 H   0  0  0  0  0  0  0  0  0  0  0  0
   -5.5745   -3.0866  -15.1747 H   0  0  0  0  0  0  0  0  0  0  0  0
  -13.2195   -0.7202  -11.9642 H   0  0  0  0  0  0  0  0  0  0  0  0
  -12.0898   -0.1536  -12.9983 H   0  0  0  0  0  0  0  0  0  0  0  0
  -11.6775   -2.3921  -13.0251 H   0  0  0  0  0  0  0  0  0  0  0  0
  -11.9852   -2.5503  -11.4291 H   0  0  0  0  0  0  0  0  0  0  0  0
  -11.7030   -1.4499   -9.7058 H   0  0  0  0  0  0  0  0  0  0  0  0
  -10.8950   -0.1877   -9.0572 H   0  0  0  0  0  0  0  0  0  0  0  0
   -9.3054   -3.0753   -9.6176 H   0  0  0  0  0  0  0  0  0  0  0  0
   -8.7475   -1.8064   -8.7543 H   0  0  0  0  0  0  0  0  0  0  0  0
  -10.2969   -3.3990  -13.6762 H   0  0  0  0  0  0  0  0  0  0  0  0
  -10.6927   -4.5980  -12.6406 H   0  0  0  0  0  0  0  0  0  0  0  0
   -6.9040   -4.7059  -11.9974 H   0  0  0  0  0  0  0  0  0  0  0  0
   -9.2184   -0.4146  -10.6889 H   0  0  0  0  0  0  0  0  0  0  0  0
   -9.5987   -3.6799  -10.9671 H   0  0  0  0  0  0  0  0  0  0  0  0
   -7.9049   -2.0770  -12.5068 H   0  0  0  0  0  0  0  0  0  0  0  0
   -6.5541   -5.6767  -14.5367 H   0  0  0  0  0  0  0  0  0  0  0  0
  -10.8624    0.7460  -11.3735 H   0  0  0  0  0  0  0  0  0  0  0  0
   -7.5069   -1.1926  -10.7496 H   0  0  0  0  0  0  0  0  0  0  0  0
   -9.3038   -5.2703  -14.5483 H   0  0  0  0  0  0  0  0  0  0  0  0
   -8.4264   -0.8849  -12.6369 H   0  0  0  0  0  0  0  0  0  0  0  0
   -9.5265   -1.3292  -13.7589 H   0  0  0  0  0  0  0  0  0  0  0  0
   -9.8162   -0.0425  -12.7960 H   0  0  0  0  0  0  0  0  0  0  0  0
   -7.3115   -2.2447  -14.5949 H   0  0  0  0  0  0  0  0  0  0  0  0
   -8.5779   -2.9570  -15.3402 H   0  0  0  0  0  0  0  0  0  0  0  0
   -8.7569   -2.3362  -13.8405 H   0  0  0  0  0  0  0  0  0  0  0  0
   -6.9624   -3.8627  -18.1546 H   0  0  0  0  0  0  0  0  0  0  0  0
   -6.7663   -2.8410  -16.8959 H   0  0  0  0  0  0  0  0  0  0  0  0
   -5.6027   -3.9298  -17.2527 H   0  0  0  0  0  0  0  0  0  0  0  0
   -9.5313   -4.2450  -18.4273 H   0  0  0  0  0  0  0  0  0  0  0  0
   -8.2207   -3.3377  -18.0729 H   0  0  0  0  0  0  0  0  0  0  0  0
   -9.1711   -4.2661  -15.7067 H   0  0  0  0  0  0  0  0  0  0  0  0
   -9.1348   -5.5440  -16.7227 H   0  0  0  0  0  0  0  0  0  0  0  0
   -7.0004   -5.6774  -16.6620 H   0  0  0  0  0  0  0  0  0  0  0  0
  -13.0969    0.6908   -9.7499 H   0  0  0  0  0  0  0  0  0  0  0  0
   -5.6624   -2.4507  -10.3499 H   0  0  0  0  0  0  0  0  0  0  0  0
   -8.2691   -6.8164  -13.4807 H   0  0  0  0  0  0  0  0  0  0  0  0
   -9.9870   -2.5490  -17.3220 C   0  0  0  0  0  0  0  0  0  0  0  0
   -5.7930   -3.2950  -13.1050 C   0  0  1  0  0  0  0  0  0  0  0  0
   -5.6030   -3.8420  -14.5200 C   0  0  2  0  0  0  0  0  0  0  0  0
  -12.2380   -0.6100  -12.1210 C   0  0  2  0  0  0  0  0  0  0  0  0
  -11.5580   -1.9730  -12.1250 C   0  0  2  0  0  0  0  0  0  0  0  0
  -11.0700   -0.7000   -9.8980 C   0  0  1  0  0  0  0  0  0  0  0  0
   -8.9070   -2.1600   -9.6760 C   0  0  2  0  0  0  0  0  0  0  0  0
   -9.9440   -4.0340  -12.9890 C   0  0  2  0  0  0  0  0  0  0  0  0
   -7.0500   -3.8800  -12.5420 C   0  0  1  0  0  0  0  0  0  0  0  0
   -9.7800   -1.2190  -10.4950 C   0  0  1  0  0  0  0  0  0  0  0  0
   -9.3970   -3.2110  -11.8270 C   0  0  1  0  0  0  0  0  0  0  0  0
   -7.9260   -2.8410  -11.8620 C   0  0  1  0  0  0  0  0  0  0  0  0
   -6.7700   -4.7460  -14.8320 C   0  0  1  0  0  0  0  0  0  0  0  0
  -11.6220    0.2170  -10.9950 C   0  0  2  0  0  0  0  0  0  0  0  0
   -7.6310   -2.1550  -10.5080 C   0  0  2  0  0  0  0  0  0  0  0  0
   -8.9480   -4.9510  -13.6700 C   0  0  1  0  0  0  0  0  0  0  0  0
  -10.0700   -1.8610  -11.8270 C   0  0  1  0  0  0  0  0  0  0  0  0
   -7.7330   -4.1320  -13.8640 C   0  0  1  0  0  0  0  0  0  0  0  0
   -9.4030   -0.9520  -12.8410 C   0  0  0  0  0  0  0  0  0  0  0  0
   -8.1280   -2.8060  -14.4600 C   0  0  0  0  0  0  0  0  0  0  0  0
   -6.5890   -3.7660  -17.2320 C   0  0  0  0  0  0  0  0  0  0  0  0
   -9.0770   -3.7100  -17.7150 C   0  0  1  0  0  0  0  0  0  0  0  0
   -8.7530   -4.6390  -16.5350 C   0  0  1  0  0  0  0  0  0  0  0  0
   -7.2510   -4.7760  -16.3090 C   0  0  2  0  0  0  0  0  0  0  0  0
  -11.2370   -2.6200  -17.5030 O   0  5  0  0  0  0  0  0  0  0  0  0
   -9.4420   -1.5580  -16.7950 O   0  0  0  0  0  0  0  0  0  0  0  0
  -12.5890    1.1230  -10.4950 O   0  0  0  0  0  0  0  0  0  0  0  0
   -6.4630   -2.4700   -9.7510 O   0  0  0  0  0  0  0  0  0  0  0  0
   -8.4910   -6.0460  -12.8830 O   0  0  0  0  0  0  0  0  0  0  0  0
  1 41  1  0  0  0  0
  2 41  1  0  0  0  0
  3 42  1  0  0  0  0
  4 42  1  0  0  0  0
  5 43  1  0  0  0  0
  6 43  1  0  0  0  0
  7 44  1  0  0  0  0
  8 44  1  0  0  0  0
  9 45  1  0  0  0  0
 10 45  1  0  0  0  0
 11 46  1  0  0  0  0
 12 46  1  0  0  0  0
 13 47  1  0  0  0  0
 14 47  1  0  0  0  0
 15 48  1  0  0  0  0
 16 49  1  0  0  0  0
 17 50  1  0  0  0  0
 18 51  1  0  0  0  0
 19 52  1  0  0  0  0
 20 53  1  0  0  0  0
 21 54  1  0  0  0  0
 22 55  1  0  0  0  0
 23 58  1  0  0  0  0
 24 58  1  0  0  0  0
 25 58  1  0  0  0  0
 26 59  1  0  0  0  0
 27 59  1  0  0  0  0
 28 59  1  0  0  0  0
 29 60  1  0  0  0  0
 30 60  1  0  0  0  0
 31 60  1  0  0  0  0
 32 61  1  0  0  0  0
 33 61  1  0  0  0  0
 34 62  1  0  0  0  0
 35 62  1  0  0  0  0
 36 63  1  0  0  0  0
 37 66  1  0  0  0  0
 38 67  1  0  0  0  0
 39 68  1  0  0  0  0
 40 61  1  0  0  0  0
 40 64  1  0  0  0  0
 40 65  2  0  0  0  0
 41 42  1  0  0  0  0
 41 48  1  0  0  0  0
 42 52  1  0  0  0  0
 43 44  1  0  0  0  0
 43 53  1  0  0  0  0
 44 56  1  0  0  0  0
 45 49  1  0  0  0  0
 45 53  1  0  0  0  0
 46 49  1  0  0  0  0
 46 54  1  0  0  0  0
 47 50  1  0  0  0  0
 47 55  1  0  0  0  0
 48 51  1  0  0  0  0
 48 57  1  0  0  0  0
 49 56  1  0  0  0  0
 50 51  1  0  0  0  0
 50 56  1  0  0  0  0
 51 54  1  0  0  0  0
 52 57  1  0  0  0  0
 52 63  1  0  0  0  0
 53 66  1  0  0  0  0
 54 67  1  0  0  0  0
 55 57  1  0  0  0  0
 55 68  1  0  0  0  0
 56 58  1  0  0  0  0
 57 59  1  0  0  0  0
 60 63  1  0  0  0  0
 61 62  1  0  0  0  0
 62 63  1  0  0  0  0
M  CHG  1  64  -1
M  END
> <scpdb_id>
3hgg_1

$$$$
