#    Name: 4926
#    Modification time : Tue Aug  8 18:58:35 2017

@<TRIPOS>MOLECULE
4926
   50     0    15     0     0
SMALL
NO_CHARGES


@<TRIPOS>ATOM
      1 N          39.3650   77.4230   16.8490 N.am      1 SEL1        0.0000 
      2 N          37.6300   78.6120   18.2960 N.am      1 SEL1        0.0000 
      3 N          38.1320   79.4600   15.9740 N.am      1 SEL1        0.0000 
      4 N          41.6490   78.1740   18.6010 N.am      1 SEL1        0.0000 
      5 N          39.7240   79.6780   17.8140 N.am      1 SEL1        0.0000 
      6 N          44.6670   82.6920   25.0210 N.am      1 SEL1        0.0000 
      7 O          45.6880   81.1370   19.7430 O.2       2 ALL2        0.0000 
      8 O          42.6500   81.8100   25.7780 O.2       2 ALL2        0.0000 
      9 NZ         37.6300   78.6120   18.2960 N.4       3 LYL3        0.0000 
     10 NZ         38.1320   79.4600   15.9740 N.4       3 LYL3        0.0000 
     11 CA         43.0840   82.6630   17.6830 C.3       4 GLL5        0.0000 
     12 CA         44.4010   81.4910   19.2650 C.3       4 GLL5        0.0000 
     13 CA         43.9310   82.7810   19.8790 C.3       4 GLL5        0.0000 
     14 CA         44.2960   81.7630   17.7810 C.3       4 GLL5        0.0000 
     15 Zn         39.3650   77.4230   16.8490 Zn        5 ZIL7        0.0000 
     16 N          40.5100   75.4080   18.5200 N.am      6 SEP1        0.0000 
     17 N          38.9500   76.8910   20.5730 N.am      6 SEP1        0.0000 
     18 N          39.0060   79.6380   21.0000 N.am      6 SEP1        0.0000 
     19 N          37.4910   81.2690   19.5330 N.am      6 SEP1        0.0000 
     20 N          35.3010   77.4960   17.5190 N.am      6 SEP1        0.0000 
     21 N          36.8790   81.7150   16.8900 N.am      6 SEP1        0.0000 
     22 N          43.0840   76.0740   19.2800 N.am      6 SEP1        0.0000 
     23 N          45.6290   81.6360   27.6440 N.am      6 SEP1        0.0000 
     24 O          46.0150   79.2060   21.3990 O.2       7 ALP2        0.0000 
     25 O          42.9610   81.7340   28.5040 O.2       7 ALP2        0.0000 
     26 NZ         35.3010   77.4960   17.5190 N.4       8 LYP3        0.0000 
     27 CA         43.2170   86.4730   17.9600 C.3       9 GLP5        0.0000 
     28 CA         44.1330   77.6680   20.7440 C.3       9 GLP5        0.0000 
     29 CA         43.6640   86.5400   19.3910 C.3       9 GLP5        0.0000 
     30 CA         46.5810   78.0370   17.3990 C.3       9 GLP5        0.0000 
     31 Zn         39.3520   76.5350   15.2230 Zn       10 ZIP7        0.0000 
     32 N          39.9375   76.4155   17.6845 N.am     11 SEC1        0.0000 
     33 N          38.2900   77.7515   19.4345 N.am     11 SEC1        0.0000 
     34 N          38.3180   79.1250   19.6480 N.am     11 SEC1        0.0000 
     35 N          37.5605   79.9405   18.9145 N.am     11 SEC1        0.0000 
     36 N          36.4655   78.0540   17.9075 N.am     11 SEC1        0.0000 
     37 N          37.5055   80.5875   16.4320 N.am     11 SEC1        0.0000 
     38 N          42.3665   77.1240   18.9405 N.am     11 SEC1        0.0000 
     39 N          39.3650   79.6580   19.4070 N.am     11 SEC1        0.0000 
     40 N          38.6075   80.4735   18.6735 N.am     11 SEC1        0.0000 
     41 N          45.1480   82.1640   26.3325 N.am     11 SEC1        0.0000 
     42 O          45.8515   80.1715   20.5710 O.2      12 ALC2        0.0000 
     43 O          42.8055   81.7720   27.1410 O.2      12 ALC2        0.0000 
     44 NZ         36.4655   78.0540   17.9075 N.4      13 LYC3        0.0000 
     45 NZ         36.7165   78.4780   16.7465 N.4      13 LYC3        0.0000 
     46 CA         43.1505   84.5680   17.8215 C.3      14 GLC5        0.0000 
     47 CA         44.2670   79.5795   20.0045 C.3      14 GLC5        0.0000 
     48 CA         43.7975   84.6605   19.6350 C.3      14 GLC5        0.0000 
     49 CA         45.4648   79.8320   17.9610 C.3      14 GLC5        0.0000 
     50 Zn         39.3585   76.9790   16.0360 Zn       15 ZIC7        0.0000 
@<TRIPOS>BOND
@<TRIPOS>SUBSTRUCTURE
     1 SEL1        1 GROUP        1 Z    SEL  0     ROOT SEL Z 0
     2 ALL2        7 GROUP        1 Z    ALL  0     **** ALL Z 1
     3 LYL3        9 GROUP        1 Z    LYL  0     **** LYL Z 2
     4 GLL5       11 GROUP        1 Z    GLL  0     **** GLL Z 4
     5 ZIL7       15 GROUP        1 Z    ZIL  0     **** ZIL Z 5
     6 SEP1       16 GROUP        1 Z    SEP  0     **** SEP Z 7
     7 ALP2       24 GROUP        1 Z    ALP  0     **** ALP Z 8
     8 LYP3       26 GROUP        1 Z    LYP  0     **** LYP Z 9
     9 GLP5       27 GROUP        1 Z    GLP  0     **** GLP Z 11
    10 ZIP7       31 GROUP        1 Z    ZIP  0     **** ZIP Z 12
    11 SEC1       32 GROUP        1 Z    SEC  0     **** SEC Z 14
    12 ALC2       42 GROUP        1 Z    ALC  0     **** ALC Z 15
    13 LYC3       44 GROUP        1 Z    LYC  0     **** LYC Z 16
    14 GLC5       46 GROUP        1 Z    GLC  0     **** GLC Z 18
    15 ZIC7       50 GROUP        1 Z    ZIC  0     **** ZIC Z 19
@<TRIPOS>SET

