1l8q_ADP_1_ligand
  -OEChem-08111718373D

 39 41  0     1  0  0  0  0  0999 V2000
   46.3881   83.4633   24.2758 H   0  0  0  0  0  0  0  0  0  0  0  0
   41.4547   81.6850   20.6721 H   0  0  0  0  0  0  0  0  0  0  0  0
   44.1934   80.9247   17.2455 H   0  0  0  0  0  0  0  0  0  0  0  0
   43.7566   80.7654   19.5062 H   0  0  0  0  0  0  0  0  0  0  0  0
   43.2263   83.3638   16.9840 H   0  0  0  0  0  0  0  0  0  0  0  0
   44.6833   83.4322   19.9786 H   0  0  0  0  0  0  0  0  0  0  0  0
   41.0342   82.3198   17.6030 H   0  0  0  0  0  0  0  0  0  0  0  0
   41.8505   81.6150   16.3768 H   0  0  0  0  0  0  0  0  0  0  0  0
   42.9712   81.8709   26.7230 H   0  0  0  0  0  0  0  0  0  0  0  0
   41.7374   81.4511   25.5823 H   0  0  0  0  0  0  0  0  0  0  0  0
   46.2306   82.0158   17.3834 H   0  0  0  0  0  0  0  0  0  0  0  0
   45.5951   80.5349   20.5360 H   0  0  0  0  0  0  0  0  0  0  0  0
   45.4850   83.1090   24.0330 C   0  0  0  0  0  0  0  0  0  0  0  0
   42.1110   81.9140   21.3910 C   0  0  0  0  0  0  0  0  0  0  0  0
   43.0030   82.1340   23.3720 C   0  0  0  0  0  0  0  0  0  0  0  0
   43.9430   82.6000   22.3550 C   0  0  0  0  0  0  0  0  0  0  0  0
   43.4440   82.2100   24.7720 C   0  0  0  0  0  0  0  0  0  0  0  0
   44.2960   81.7630   17.7810 C   0  0  1  0  0  0  0  0  0  0  0  0
   44.4010   81.4910   19.2650 C   0  0  2  0  0  0  0  0  0  0  0  0
   43.0840   82.6630   17.6830 C   0  0  1  0  0  0  0  0  0  0  0  0
   43.9310   82.7810   19.8790 C   0  0  2  0  0  0  0  0  0  0  0  0
   41.8700   81.8310   17.3530 C   0  0  1  0  0  0  0  0  0  0  0  0
   45.1360   83.0680   22.7340 N   0  0  0  0  0  0  0  0  0  0  0  0
   44.6670   82.6920   25.0210 N   0  0  0  0  0  0  0  0  0  0  0  0
   41.9000   81.7340   22.7300 N   0  0  0  0  0  0  0  0  0  0  0  0
   43.3370   82.4470   21.1800 N   0  0  0  0  0  0  0  0  0  0  0  0
   42.6500   81.8100   25.7780 N   0  0  0  0  0  0  0  0  0  0  0  0
   37.6300   78.6120   18.2960 O   0  5  0  0  0  0  0  0  0  0  0  0
   38.1320   79.4600   15.9740 O   0  5  0  0  0  0  0  0  0  0  0  0
   41.5320   78.9860   16.2050 O   0  5  0  0  0  0  0  0  0  0  0  0
   39.3650   77.4230   16.8490 O   0  0  0  0  0  0  0  0  0  0  0  0
   41.6490   78.1740   18.6010 O   0  0  0  0  0  0  0  0  0  0  0  0
   42.9330   83.2720   18.9810 O   0  0  0  0  0  0  0  0  0  0  0  0
   45.3900   82.5560   17.3430 O   0  0  0  0  0  0  0  0  0  0  0  0
   45.6880   81.1370   19.7430 O   0  0  0  0  0  0  0  0  0  0  0  0
   41.9960   80.6460   18.1180 O   0  0  0  0  0  0  0  0  0  0  0  0
   39.7240   79.6780   17.8140 O   0  0  0  0  0  0  0  0  0  0  0  0
   38.6290   78.7300   17.1820 P   0  0  0  0  0  0  0  0  0  0  0  0
   41.2650   79.3060   17.6660 P   0  0  1  0  0  0  0  0  0  0  0  0
  1 13  1  0  0  0  0
  2 14  1  0  0  0  0
  3 18  1  0  0  0  0
  4 19  1  0  0  0  0
  5 20  1  0  0  0  0
  6 21  1  0  0  0  0
  7 22  1  0  0  0  0
  8 22  1  0  0  0  0
  9 27  1  0  0  0  0
 10 27  1  0  0  0  0
 11 34  1  0  0  0  0
 12 35  1  0  0  0  0
 13 23  1  0  0  0  0
 13 24  2  0  0  0  0
 14 25  2  0  0  0  0
 14 26  1  0  0  0  0
 15 16  1  0  0  0  0
 15 17  2  0  0  0  0
 15 25  1  0  0  0  0
 16 23  2  0  0  0  0
 16 26  1  0  0  0  0
 17 24  1  0  0  0  0
 17 27  1  0  0  0  0
 18 19  1  0  0  0  0
 18 20  1  0  0  0  0
 18 34  1  0  0  0  0
 19 21  1  0  0  0  0
 19 35  1  0  0  0  0
 20 22  1  0  0  0  0
 20 33  1  0  0  0  0
 21 26  1  0  0  0  0
 21 33  1  0  0  0  0
 22 36  1  0  0  0  0
 28 38  1  0  0  0  0
 29 38  1  0  0  0  0
 30 39  1  0  0  0  0
 31 38  2  0  0  0  0
 32 39  2  0  0  0  0
 36 39  1  0  0  0  0
 37 38  1  0  0  0  0
 37 39  1  0  0  0  0
M  CHG  3  28  -1  29  -1  30  -1
M  END
> <scpdb_id>
1l8q_1

$$$$
