#    Name: 22050
#    Modification time : Tue Aug  8 20:52:43 2017

@<TRIPOS>MOLECULE
22050
   95     0     9     0     0
SMALL
NO_CHARGES


@<TRIPOS>ATOM
      1 N          16.2620    9.0190   19.3870 N.am      1 SEL1        0.0000 
      2 N           9.3720   -1.5540   28.0860 N.am      1 SEL1        0.0000 
      3 N          14.3140    5.4230   18.1900 N.am      1 SEL1        0.0000 
      4 O          16.2620    9.0190   19.3870 O.2       2 ALL2        0.0000 
      5 O           9.3720   -1.5540   28.0860 O.2       2 ALL2        0.0000 
      6 CA         14.7030    6.4940   19.0660 C.3       3 GLL5        0.0000 
      7 CA         14.3770    7.8420   18.3630 C.3       3 GLL5        0.0000 
      8 CA         14.8440    9.0460   19.2530 C.3       3 GLL5        0.0000 
      9 CA         14.2010    8.9960   20.6780 C.3       3 GLL5        0.0000 
     10 CA         14.1870    7.6040   25.7750 C.3       3 GLL5        0.0000 
     11 CA         12.9690    7.2170   26.6680 C.3       3 GLL5        0.0000 
     12 CA         13.0850    5.7900   27.3210 C.3       3 GLL5        0.0000 
     13 CA         14.8640    5.0830   25.6950 C.3       3 GLL5        0.0000 
     14 CA         15.3690    3.7880   24.9550 C.3       3 GLL5        0.0000 
     15 CA         12.3230    4.4200   25.3020 C.3       3 GLL5        0.0000 
     16 CA         13.8640    1.4700   28.7720 C.3       3 GLL5        0.0000 
     17 CA         12.1710    1.4870   26.9580 C.3       3 GLL5        0.0000 
     18 CA          7.9640    0.3840   28.3820 C.3       3 GLL5        0.0000 
     19 CA          7.7730   -1.0300   26.3510 C.3       3 GLL5        0.0000 
     20 CA         14.8010    2.6580   25.8450 C.3       3 GLL5        0.0000 
     21 CA         14.0940    3.3740   27.0140 C.3       3 GLL5        0.0000 
     22 CA         13.1020    2.4140   27.8240 C.3       3 GLL5        0.0000 
     23 CA          9.8490    0.4080   26.6890 C.3       3 GLL5        0.0000 
     24 N          17.3970   10.1390   17.1050 N.am      4 SEP1        0.0000 
     25 N          10.5050   -0.7360   30.6560 N.am      4 SEP1        0.0000 
     26 N          11.7280    4.5750   17.9470 N.am      4 SEP1        0.0000 
     27 N          14.6570    4.8200   15.4330 N.am      4 SEP1        0.0000 
     28 O          17.1760   10.8470   21.2620 O.2       5 ALP2        0.0000 
     29 O          11.7780   -2.7380   27.4990 O.2       5 ALP2        0.0000 
     30 CA         17.4300    4.0310   17.4570 C.3       6 GLP5        0.0000 
     31 CA         17.8310    6.1650   21.8180 C.3       6 GLP5        0.0000 
     32 CA         17.3080    8.1920   15.7270 C.3       6 GLP5        0.0000 
     33 CA         17.3250    9.5730   15.8540 C.3       6 GLP5        0.0000 
     34 CA         10.5710    7.5120   22.4120 C.3       6 GLP5        0.0000 
     35 CA         17.1970    9.0550   26.3600 C.3       6 GLP5        0.0000 
     36 CA          9.0120    7.8670   26.0810 C.3       6 GLP5        0.0000 
     37 CA         16.6560    9.2580   27.6370 C.3       6 GLP5        0.0000 
     38 CA          8.9790    6.9200   28.3800 C.3       6 GLP5        0.0000 
     39 CA         18.2570    6.9700   27.1300 C.3       6 GLP5        0.0000 
     40 CA         14.5970    2.0990   21.1960 C.3       6 GLP5        0.0000 
     41 CA          9.8570    2.1840   23.3530 C.3       6 GLP5        0.0000 
     42 CA         14.9870   -0.8680   31.3630 C.3       6 GLP5        0.0000 
     43 CA         17.5800    3.5860   29.0300 C.3       6 GLP5        0.0000 
     44 CA         14.0220   -1.6710   24.5040 C.3       6 GLP5        0.0000 
     45 CA          4.5720    1.7330   29.2910 C.3       6 GLP5        0.0000 
     46 CA          6.1890   -1.4850   31.4200 C.3       6 GLP5        0.0000 
     47 CA          7.7980   -4.8530   27.8550 C.3       6 GLP5        0.0000 
     48 CA          3.6150   -1.4330   26.7430 C.3       6 GLP5        0.0000 
     49 CA          5.7420   -3.3060   23.3560 C.3       6 GLP5        0.0000 
     50 CA          9.3510   -4.1090   23.8840 C.3       6 GLP5        0.0000 
     51 CA         14.6010   12.0440   16.7960 C.3       6 GLP5        0.0000 
     52 CA         17.5270   11.8890   20.3590 C.3       6 GLP5        0.0000 
     53 CA         13.7490   12.4310   20.7070 C.3       6 GLP5        0.0000 
     54 CA         10.9240   10.5980   18.6150 C.3       6 GLP5        0.0000 
     55 CA         12.6210   11.1820   27.2730 C.3       6 GLP5        0.0000 
     56 CA         13.5450    7.0330   30.5820 C.3       6 GLP5        0.0000 
     57 CA         18.4340    0.6580   24.9860 C.3       6 GLP5        0.0000 
     58 CA         13.0420    4.6860   31.3010 C.3       6 GLP5        0.0000 
     59 N          16.8295    9.5790   18.2460 N.am      7 SEC1        0.0000 
     60 N           9.9385   -1.1450   29.3710 N.am      7 SEC1        0.0000 
     61 N          13.0210    4.9990   18.0685 N.am      7 SEC1        0.0000 
     62 N          14.4855    5.1215   16.8115 N.am      7 SEC1        0.0000 
     63 O          16.7190    9.9330   20.3245 O.2       8 ALC2        0.0000 
     64 O          10.5750   -2.1460   27.7925 O.2       8 ALC2        0.0000 
     65 CA         16.0665    5.2625   18.2615 C.3       9 GLC5        0.0000 
     66 CA         16.2670    6.3295   20.4420 C.3       9 GLC5        0.0000 
     67 CA         15.8425    8.0170   17.0450 C.3       9 GLC5        0.0000 
     68 CA         16.0845    9.3095   17.5535 C.3       9 GLC5        0.0000 
     69 CA         12.3860    8.2540   21.5450 C.3       9 GLC5        0.0000 
     70 CA         15.6920    8.3295   26.0675 C.3       9 GLC5        0.0000 
     71 CA         10.9905    7.5420   26.3745 C.3       9 GLC5        0.0000 
     72 CA         14.8125    8.2375   27.1525 C.3       9 GLC5        0.0000 
     73 CA         11.0320    6.3550   27.8505 C.3       9 GLC5        0.0000 
     74 CA         16.5605    6.0265   26.4125 C.3       9 GLC5        0.0000 
     75 CA         14.9830    2.9435   23.0755 C.3       9 GLC5        0.0000 
     76 CA         11.0900    3.3020   24.3275 C.3       9 GLC5        0.0000 
     77 CA         14.4255    0.3010   30.0675 C.3       9 GLC5        0.0000 
     78 CA         15.7220    2.5280   28.9010 C.3       9 GLC5        0.0000 
     79 CA         13.0965   -0.0920   25.7310 C.3       9 GLC5        0.0000 
     80 CA          6.2680    1.0585   28.8365 C.3       9 GLC5        0.0000 
     81 CA          7.0765   -0.5505   29.9010 C.3       9 GLC5        0.0000 
     82 CA          7.7855   -2.9415   27.1030 C.3       9 GLC5        0.0000 
     83 CA          5.6940   -1.2315   26.5470 C.3       9 GLC5        0.0000 
     84 CA          6.7575   -2.1680   24.8535 C.3       9 GLC5        0.0000 
     85 CA          8.5620   -2.5695   25.1175 C.3       9 GLC5        0.0000 
     86 CA         14.6058   10.2440   17.8020 C.3       9 GLC5        0.0000 
     87 CA         16.0248   10.4550   20.1623 C.3       9 GLC5        0.0000 
     88 CA         14.1358   10.7260   20.3362 C.3       9 GLC5        0.0000 
     89 CA         12.6649    9.6590   19.1790 C.3       9 GLC5        0.0000 
     90 CA         13.0995    9.2963   26.7473 C.3       9 GLC5        0.0000 
     91 CA         13.2860    6.7683   28.7883 C.3       9 GLC5        0.0000 
     92 CA         16.7595    1.9405   25.1930 C.3       9 GLC5        0.0000 
     93 CA         16.0138    3.3010   27.7297 C.3       9 GLC5        0.0000 
     94 CA         13.2625    3.3140   29.7995 C.3       9 GLC5        0.0000 
     95 CA         10.2599    1.5379   25.1679 C.3       9 GLC5        0.0000 
@<TRIPOS>BOND
@<TRIPOS>SUBSTRUCTURE
     1 SEL1        1 GROUP        1 Z    SEL  0     ROOT SEL Z 0
     2 ALL2        4 GROUP        1 Z    ALL  0     **** ALL Z 1
     3 GLL5        6 GROUP        1 Z    GLL  0     **** GLL Z 4
     4 SEP1       24 GROUP        1 Z    SEP  0     **** SEP Z 7
     5 ALP2       28 GROUP        1 Z    ALP  0     **** ALP Z 8
     6 GLP5       30 GROUP        1 Z    GLP  0     **** GLP Z 11
     7 SEC1       59 GROUP        1 Z    SEC  0     **** SEC Z 14
     8 ALC2       63 GROUP        1 Z    ALC  0     **** ALC Z 15
     9 GLC5       65 GROUP        1 Z    GLC  0     **** GLC Z 18
@<TRIPOS>SET

