@<TRIPOS>MOLECULE
2zlc_VDX_1_ligand
   74    76     1     0     0
SMALL
NO_CHARGES


@<TRIPOS>ATOM
     1 O2          16.2620     9.0190    19.3870 O.3          1 VDX500   0.0000
     2 O3           9.3720    -1.5540    28.0860 O.3          1 VDX500   0.0000
     3 C1          14.7030     6.4940    19.0660 C.3          1 VDX500   0.0000
     4 C2          14.3770     7.8420    18.3630 C.3          1 VDX500   0.0000
     5 C3          14.8440     9.0460    19.2530 C.3          1 VDX500   0.0000
     6 C4          14.2010     8.9960    20.6780 C.3          1 VDX500   0.0000
     7 C5          14.3070     7.5750    21.3130 C.2          1 VDX500   0.0000
     8 C6          14.6910     7.5850    22.6780 C.2          1 VDX500   0.0000
     9 C7          14.8710     6.4770    23.5100 C.2          1 VDX500   0.0000
    10 C8          14.6690     6.4010    24.8880 C.2          1 VDX500   0.0000
    11 C9          14.1870     7.6040    25.7750 C.3          1 VDX500   0.0000
    12 C10         14.0200     6.4410    20.4640 C.2          1 VDX500   0.0000
    13 C11         12.9690     7.2170    26.6680 C.3          1 VDX500   0.0000
    14 C12         13.0850     5.7900    27.3210 C.3          1 VDX500   0.0000
    15 C13         13.4980     4.6420    26.3360 C.3          1 VDX500   0.0000
    16 C14         14.8640     5.0830    25.6950 C.3          1 VDX500   0.0000
    17 C15         15.3690     3.7880    24.9550 C.3          1 VDX500   0.0000
    18 C16         14.8010     2.6580    25.8450 C.3          1 VDX500   0.0000
    19 C17         14.0940     3.3740    27.0140 C.3          1 VDX500   0.0000
    20 C18         12.3230     4.4200    25.3020 C.3          1 VDX500   0.0000
    21 C19         13.1770     5.3660    20.8090 C.2          1 VDX500   0.0000
    22 C20         13.1020     2.4140    27.8240 C.3          1 VDX500   0.0000
    23 C21         13.8640     1.4700    28.7720 C.3          1 VDX500   0.0000
    24 C22         12.1710     1.4870    26.9580 C.3          1 VDX500   0.0000
    25 C23         10.7820     1.2640    27.5950 C.3          1 VDX500   0.0000
    26 C24          9.8490     0.4080    26.6890 C.3          1 VDX500   0.0000
    27 C25          8.7560    -0.4590    27.3810 C.3          1 VDX500   0.0000
    28 C26          7.9640     0.3840    28.3820 C.3          1 VDX500   0.0000
    29 C27          7.7730    -1.0300    26.3510 C.3          1 VDX500   0.0000
    30 O1          14.3140     5.4230    18.1900 O.3          1 VDX500   0.0000
    31 H1          16.5579     9.7873    19.9547 H            1 VDX500   0.0000
    32 H2          10.2177    -1.8161    27.6211 H            1 VDX500   0.0000
    33 H3          15.6927     6.4435    19.2002 H            1 VDX500   0.0000
    34 H4          13.3904     7.9058    18.2129 H            1 VDX500   0.0000
    35 H5          14.8511     7.8785    17.4833 H            1 VDX500   0.0000
    36 H6          14.5772     9.9005    18.8073 H            1 VDX500   0.0000
    37 H7          13.2357     9.2471    20.6064 H            1 VDX500   0.0000
    38 H8          14.6727     9.6504    21.2689 H            1 VDX500   0.0000
    39 H9          14.8502     8.4823    23.0898 H            1 VDX500   0.0000
    40 H10         15.1820     5.6378    23.0640 H            1 VDX500   0.0000
    41 H11         13.9221     8.3606    25.1772 H            1 VDX500   0.0000
    42 H12         14.9411     7.8934    26.3646 H            1 VDX500   0.0000
    43 H13         12.1445     7.2384    26.1025 H            1 VDX500   0.0000
    44 H14         12.8883     7.8929    27.4006 H            1 VDX500   0.0000
    45 H15         12.1962     5.5559    27.7149 H            1 VDX500   0.0000
    46 H16         13.7700     5.8363    28.0480 H            1 VDX500   0.0000
    47 H17         15.5018     5.2750    26.4409 H            1 VDX500   0.0000
    48 H18         16.3679     3.7558    24.9222 H            1 VDX500   0.0000
    49 H19         15.0031     3.7358    24.0258 H            1 VDX500   0.0000
    50 H20         15.5396     2.0765    26.1861 H            1 VDX500   0.0000
    51 H21         14.1492     2.1012    25.3301 H            1 VDX500   0.0000
    52 H22         14.8021     3.6793    27.6507 H            1 VDX500   0.0000
    53 H23         12.5721     3.6896    24.6661 H            1 VDX500   0.0000
    54 H24         11.4904     4.1646    25.7934 H            1 VDX500   0.0000
    55 H25         12.1632     5.2655    24.7924 H            1 VDX500   0.0000
    56 H26         12.7425     5.3403    21.7093 H            1 VDX500   0.0000
    57 H27         13.0132     4.6287    20.1535 H            1 VDX500   0.0000
    58 H28         12.5121     2.9942    28.3856 H            1 VDX500   0.0000
    59 H29         13.2119     0.8884    29.2583 H            1 VDX500   0.0000
    60 H30         14.4894     0.8981    28.2412 H            1 VDX500   0.0000
    61 H31         14.3856     2.0104    29.4323 H            1 VDX500   0.0000
    62 H32         12.6179     0.5991    26.8488 H            1 VDX500   0.0000
    63 H33         12.0459     1.9099    26.0605 H            1 VDX500   0.0000
    64 H34         10.3524     2.1536    27.7500 H            1 VDX500   0.0000
    65 H35         10.9007     0.7942    28.4698 H            1 VDX500   0.0000
    66 H36         10.4315    -0.2115    26.1628 H            1 VDX500   0.0000
    67 H37          9.3814     1.0353    26.0662 H            1 VDX500   0.0000
    68 H38          7.5308     1.1486    27.9047 H            1 VDX500   0.0000
    69 H39          7.2607    -0.1822    28.8117 H            1 VDX500   0.0000
    70 H40          8.5828     0.7368    29.0839 H            1 VDX500   0.0000
    71 H41          7.3378    -0.2794    25.8538 H            1 VDX500   0.0000
    72 H42          8.2669    -1.6142    25.7070 H            1 VDX500   0.0000
    73 H43          7.0735    -1.5686    26.8207 H            1 VDX500   0.0000
    74 H44         14.5163     4.5459    18.6256 H            1 VDX500   0.0000
@<TRIPOS>BOND
     1    1    5       1
     2    2   27       1
     3    3    4       1
     4    3   12       1
     5    3   30       1
     6    4    5       1
     7    5    6       1
     8    6    7       1
     9    7    8       2
    10    7   12       1
    11    8    9       1
    12    9   10       2
    13   10   11       1
    14   10   16       1
    15   11   13       1
    16   12   21       2
    17   13   14       1
    18   14   15       1
    19   15   16       1
    20   15   19       1
    21   15   20       1
    22   16   17       1
    23   17   18       1
    24   18   19       1
    25   19   22       1
    26   22   23       1
    27   22   24       1
    28   24   25       1
    29   25   26       1
    30   26   27       1
    31   27   28       1
    32   27   29       1
    33    1   31       1
    34    2   32       1
    35    3   33       1
    36    4   34       1
    37    4   35       1
    38    5   36       1
    39    6   37       1
    40    6   38       1
    41    8   39       1
    42    9   40       1
    43   11   41       1
    44   11   42       1
    45   13   43       1
    46   13   44       1
    47   14   45       1
    48   14   46       1
    49   16   47       1
    50   17   48       1
    51   17   49       1
    52   18   50       1
    53   18   51       1
    54   19   52       1
    55   20   53       1
    56   20   54       1
    57   20   55       1
    58   21   56       1
    59   21   57       1
    60   22   58       1
    61   23   59       1
    62   23   60       1
    63   23   61       1
    64   24   62       1
    65   24   63       1
    66   25   64       1
    67   25   65       1
    68   26   66       1
    69   26   67       1
    70   28   68       1
    71   28   69       1
    72   28   70       1
    73   29   71       1
    74   29   72       1
    75   29   73       1
    76   30   74       1
@<TRIPOS>SUBSTRUCTURE
     1 VDX500      1 GROUP             4 A     VDX     0 **** VDX A 500
