2zlc_VDX_1_ligand
  -OEChem-08111718373D

 74 76  0     1  0  0  0  0  0999 V2000
   12.7425    5.3403   21.7093 H   0  0  0  0  0  0  0  0  0  0  0  0
   13.0132    4.6287   20.1535 H   0  0  0  0  0  0  0  0  0  0  0  0
   14.8502    8.4823   23.0898 H   0  0  0  0  0  0  0  0  0  0  0  0
   15.1820    5.6378   23.0640 H   0  0  0  0  0  0  0  0  0  0  0  0
   13.2357    9.2471   20.6064 H   0  0  0  0  0  0  0  0  0  0  0  0
   14.6727    9.6504   21.2689 H   0  0  0  0  0  0  0  0  0  0  0  0
   13.9221    8.3606   25.1772 H   0  0  0  0  0  0  0  0  0  0  0  0
   14.9411    7.8934   26.3646 H   0  0  0  0  0  0  0  0  0  0  0  0
   12.1445    7.2384   26.1025 H   0  0  0  0  0  0  0  0  0  0  0  0
   12.8883    7.8929   27.4006 H   0  0  0  0  0  0  0  0  0  0  0  0
   16.3679    3.7558   24.9222 H   0  0  0  0  0  0  0  0  0  0  0  0
   15.0031    3.7358   24.0258 H   0  0  0  0  0  0  0  0  0  0  0  0
   15.5396    2.0765   26.1861 H   0  0  0  0  0  0  0  0  0  0  0  0
   14.1492    2.1012   25.3301 H   0  0  0  0  0  0  0  0  0  0  0  0
   12.1962    5.5559   27.7149 H   0  0  0  0  0  0  0  0  0  0  0  0
   13.7700    5.8363   28.0480 H   0  0  0  0  0  0  0  0  0  0  0  0
   13.3904    7.9058   18.2129 H   0  0  0  0  0  0  0  0  0  0  0  0
   14.8511    7.8785   17.4833 H   0  0  0  0  0  0  0  0  0  0  0  0
   15.6927    6.4435   19.2002 H   0  0  0  0  0  0  0  0  0  0  0  0
   15.5018    5.2750   26.4409 H   0  0  0  0  0  0  0  0  0  0  0  0
   14.8021    3.6793   27.6507 H   0  0  0  0  0  0  0  0  0  0  0  0
   14.5772    9.9005   18.8073 H   0  0  0  0  0  0  0  0  0  0  0  0
   12.5721    3.6896   24.6661 H   0  0  0  0  0  0  0  0  0  0  0  0
   11.4904    4.1646   25.7934 H   0  0  0  0  0  0  0  0  0  0  0  0
   12.1632    5.2655   24.7924 H   0  0  0  0  0  0  0  0  0  0  0  0
   13.2119    0.8884   29.2583 H   0  0  0  0  0  0  0  0  0  0  0  0
   14.4894    0.8981   28.2412 H   0  0  0  0  0  0  0  0  0  0  0  0
   14.3856    2.0104   29.4323 H   0  0  0  0  0  0  0  0  0  0  0  0
    7.5308    1.1486   27.9047 H   0  0  0  0  0  0  0  0  0  0  0  0
    7.2607   -0.1822   28.8117 H   0  0  0  0  0  0  0  0  0  0  0  0
    8.5828    0.7368   29.0839 H   0  0  0  0  0  0  0  0  0  0  0  0
    7.3378   -0.2794   25.8538 H   0  0  0  0  0  0  0  0  0  0  0  0
    8.2669   -1.6142   25.7070 H   0  0  0  0  0  0  0  0  0  0  0  0
    7.0735   -1.5686   26.8207 H   0  0  0  0  0  0  0  0  0  0  0  0
   10.3524    2.1536   27.7500 H   0  0  0  0  0  0  0  0  0  0  0  0
   10.9007    0.7942   28.4698 H   0  0  0  0  0  0  0  0  0  0  0  0
   12.6179    0.5991   26.8488 H   0  0  0  0  0  0  0  0  0  0  0  0
   12.0459    1.9099   26.0605 H   0  0  0  0  0  0  0  0  0  0  0  0
   10.4315   -0.2115   26.1628 H   0  0  0  0  0  0  0  0  0  0  0  0
    9.3814    1.0353   26.0662 H   0  0  0  0  0  0  0  0  0  0  0  0
   12.5121    2.9942   28.3856 H   0  0  0  0  0  0  0  0  0  0  0  0
   14.5163    4.5459   18.6256 H   0  0  0  0  0  0  0  0  0  0  0  0
   16.5579    9.7873   19.9547 H   0  0  0  0  0  0  0  0  0  0  0  0
   10.2177   -1.8161   27.6211 H   0  0  0  0  0  0  0  0  0  0  0  0
   14.0200    6.4410   20.4640 C   0  0  0  0  0  0  0  0  0  0  0  0
   14.3070    7.5750   21.3130 C   0  0  0  0  0  0  0  0  0  0  0  0
   14.6690    6.4010   24.8880 C   0  0  0  0  0  0  0  0  0  0  0  0
   13.1770    5.3660   20.8090 C   0  0  0  0  0  0  0  0  0  0  0  0
   14.6910    7.5850   22.6780 C   0  0  0  0  0  0  0  0  0  0  0  0
   14.8710    6.4770   23.5100 C   0  0  0  0  0  0  0  0  0  0  0  0
   14.2010    8.9960   20.6780 C   0  0  1  0  0  0  0  0  0  0  0  0
   14.1870    7.6040   25.7750 C   0  0  2  0  0  0  0  0  0  0  0  0
   12.9690    7.2170   26.6680 C   0  0  2  0  0  0  0  0  0  0  0  0
   15.3690    3.7880   24.9550 C   0  0  1  0  0  0  0  0  0  0  0  0
   14.8010    2.6580   25.8450 C   0  0  2  0  0  0  0  0  0  0  0  0
   13.0850    5.7900   27.3210 C   0  0  2  0  0  0  0  0  0  0  0  0
   14.3770    7.8420   18.3630 C   0  0  2  0  0  0  0  0  0  0  0  0
   14.7030    6.4940   19.0660 C   0  0  2  0  0  0  0  0  0  0  0  0
   14.8640    5.0830   25.6950 C   0  0  2  0  0  0  0  0  0  0  0  0
   14.0940    3.3740   27.0140 C   0  0  1  0  0  0  0  0  0  0  0  0
   14.8440    9.0460   19.2530 C   0  0  2  0  0  0  0  0  0  0  0  0
   13.4980    4.6420   26.3360 C   0  0  1  0  0  0  0  0  0  0  0  0
   12.3230    4.4200   25.3020 C   0  0  0  0  0  0  0  0  0  0  0  0
   13.8640    1.4700   28.7720 C   0  0  0  0  0  0  0  0  0  0  0  0
    7.9640    0.3840   28.3820 C   0  0  0  0  0  0  0  0  0  0  0  0
    7.7730   -1.0300   26.3510 C   0  0  0  0  0  0  0  0  0  0  0  0
   10.7820    1.2640   27.5950 C   0  0  2  0  0  0  0  0  0  0  0  0
   12.1710    1.4870   26.9580 C   0  0  1  0  0  0  0  0  0  0  0  0
    9.8490    0.4080   26.6890 C   0  0  2  0  0  0  0  0  0  0  0  0
   13.1020    2.4140   27.8240 C   0  0  2  0  0  0  0  0  0  0  0  0
    8.7560   -0.4590   27.3810 C   0  0  1  0  0  0  0  0  0  0  0  0
   14.3140    5.4230   18.1900 O   0  0  0  0  0  0  0  0  0  0  0  0
   16.2620    9.0190   19.3870 O   0  0  0  0  0  0  0  0  0  0  0  0
    9.3720   -1.5540   28.0860 O   0  0  0  0  0  0  0  0  0  0  0  0
  1 48  1  0  0  0  0
  2 48  1  0  0  0  0
  3 49  1  0  0  0  0
  4 50  1  0  0  0  0
  5 51  1  0  0  0  0
  6 51  1  0  0  0  0
  7 52  1  0  0  0  0
  8 52  1  0  0  0  0
  9 53  1  0  0  0  0
 10 53  1  0  0  0  0
 11 54  1  0  0  0  0
 12 54  1  0  0  0  0
 13 55  1  0  0  0  0
 14 55  1  0  0  0  0
 15 56  1  0  0  0  0
 16 56  1  0  0  0  0
 17 57  1  0  0  0  0
 18 57  1  0  0  0  0
 19 58  1  0  0  0  0
 20 59  1  0  0  0  0
 21 60  1  0  0  0  0
 22 61  1  0  0  0  0
 23 63  1  0  0  0  0
 24 63  1  0  0  0  0
 25 63  1  0  0  0  0
 26 64  1  0  0  0  0
 27 64  1  0  0  0  0
 28 64  1  0  0  0  0
 29 65  1  0  0  0  0
 30 65  1  0  0  0  0
 31 65  1  0  0  0  0
 32 66  1  0  0  0  0
 33 66  1  0  0  0  0
 34 66  1  0  0  0  0
 35 67  1  0  0  0  0
 36 67  1  0  0  0  0
 37 68  1  0  0  0  0
 38 68  1  0  0  0  0
 39 69  1  0  0  0  0
 40 69  1  0  0  0  0
 41 70  1  0  0  0  0
 42 72  1  0  0  0  0
 43 73  1  0  0  0  0
 44 74  1  0  0  0  0
 45 46  1  0  0  0  0
 45 48  2  0  0  0  0
 45 58  1  0  0  0  0
 46 49  2  0  0  0  0
 46 51  1  0  0  0  0
 47 50  2  0  0  0  0
 47 52  1  0  0  0  0
 47 59  1  0  0  0  0
 49 50  1  0  0  0  0
 51 61  1  0  0  0  0
 52 53  1  0  0  0  0
 53 56  1  0  0  0  0
 54 55  1  0  0  0  0
 54 59  1  0  0  0  0
 55 60  1  0  0  0  0
 56 62  1  0  0  0  0
 57 58  1  0  0  0  0
 57 61  1  0  0  0  0
 58 72  1  0  0  0  0
 59 62  1  0  0  0  0
 60 62  1  0  0  0  0
 60 70  1  0  0  0  0
 61 73  1  0  0  0  0
 62 63  1  0  0  0  0
 64 70  1  0  0  0  0
 65 71  1  0  0  0  0
 66 71  1  0  0  0  0
 67 68  1  0  0  0  0
 67 69  1  0  0  0  0
 68 70  1  0  0  0  0
 69 71  1  0  0  0  0
 71 74  1  0  0  0  0
M  END
> <scpdb_id>
2zlc_1

$$$$
