@<TRIPOS>MOLECULE
3br2_DEQ_1_ligand
   74    77     1     0     0
SMALL
NO_CHARGES


@<TRIPOS>ATOM
     1 C1          14.1840    35.2480     7.6150 C.ar         1 DEQ201   0.0000
     2 C2          13.8090    33.9930     7.1550 C.ar         1 DEQ201   0.0000
     3 C3          12.5600    33.4850     7.4650 C.ar         1 DEQ201   0.0000
     4 C4          11.6870    34.2360     8.2390 C.ar         1 DEQ201   0.0000
     5 C5          13.3170    36.0250     8.3980 C.ar         1 DEQ201   0.0000
     6 C6          12.0520    35.5010     8.7090 C.ar         1 DEQ201   0.0000
     7 C7          11.1730    36.2550     9.4870 C.ar         1 DEQ201   0.0000
     8 C8          11.5740    37.5040     9.9320 C.ar         1 DEQ201   0.0000
     9 C9          12.8320    37.9850     9.6040 C.ar         1 DEQ201   0.0000
    10 N1          13.6840    37.2540     8.8480 N.ar         1 DEQ201   1.0000
    11 C10         21.8910    40.4660     1.7460 C.ar         1 DEQ201   0.0000
    12 C11         21.9570    40.7170     3.1300 C.ar         1 DEQ201   0.0000
    13 N2          23.1290    40.5360     3.8100 N.ar         1 DEQ201   1.0000
    14 C12         24.2380    40.1100     3.1620 C.ar         1 DEQ201   0.0000
    15 C13         24.2140    39.8540     1.8010 C.ar         1 DEQ201   0.0000
    16 C14         23.0420    40.0280     1.0800 C.ar         1 DEQ201   0.0000
    17 C15         20.6840    40.6550     1.0550 C.ar         1 DEQ201   0.0000
    18 C16         19.5420    41.0920     1.7190 C.ar         1 DEQ201   0.0000
    19 C17         19.5940    41.3460     3.0840 C.ar         1 DEQ201   0.0000
    20 C18         20.7870    41.1580     3.7800 C.ar         1 DEQ201   0.0000
    21 C19         23.2250    40.7820     5.2670 C.3          1 DEQ201   0.0000
    22 C20         22.8230    39.5090     6.0190 C.3          1 DEQ201   0.0000
    23 C21         22.2030    39.7730     7.3920 C.3          1 DEQ201   0.0000
    24 C22         20.9580    38.9140     7.6050 C.3          1 DEQ201   0.0000
    25 C23         20.2460    39.2290     8.9230 C.3          1 DEQ201   0.0000
    26 C24         18.7690    38.8120     8.8900 C.3          1 DEQ201   0.0000
    27 C25         18.3320    38.0840    10.1640 C.3          1 DEQ201   0.0000
    28 C26         16.8150    38.0910    10.3540 C.3          1 DEQ201   0.0000
    29 C27         16.0990    37.1390     9.3930 C.3          1 DEQ201   0.0000
    30 C28         15.0180    37.8150     8.5330 C.3          1 DEQ201   0.0000
    31 C30         13.1990    39.3530    10.1260 C.3          1 DEQ201   0.0000
    32 C29         25.5510    39.8950     3.8710 C.3          1 DEQ201   0.0000
    33 N4           9.9330    35.8310     9.8320 N.pl3        1 DEQ201   0.0000
    34 N3          23.0770    39.7600    -0.2500 N.pl3        1 DEQ201   0.0000
    35 H1          15.0891    35.6049     7.3839 H            1 DEQ201   0.0000
    36 H2          14.4426    33.4553     6.5987 H            1 DEQ201   0.0000
    37 H3          12.2880    32.5817     7.1331 H            1 DEQ201   0.0000
    38 H4          10.7849    33.8675     8.4636 H            1 DEQ201   0.0000
    39 H5          10.9562    38.0584    10.4896 H            1 DEQ201   0.0000
    40 H6          25.0435    39.5430     1.3372 H            1 DEQ201   0.0000
    41 H7          20.6443    40.4732     0.0725 H            1 DEQ201   0.0000
    42 H8          18.6876    41.2227     1.2160 H            1 DEQ201   0.0000
    43 H9          18.7773    41.6630     3.5661 H            1 DEQ201   0.0000
    44 H10         20.8132    41.3402     4.7629 H            1 DEQ201   0.0000
    45 H11         22.6109    41.5291     5.5215 H            1 DEQ201   0.0000
    46 H12         24.1650    41.0278     5.5037 H            1 DEQ201   0.0000
    47 H13         23.6398    38.9459     6.1449 H            1 DEQ201   0.0000
    48 H14         22.1574    39.0112     5.4629 H            1 DEQ201   0.0000
    49 H15         21.9492    40.7381     7.4561 H            1 DEQ201   0.0000
    50 H16         22.8744    39.5571     8.1009 H            1 DEQ201   0.0000
    51 H17         21.2295    37.9516     7.6094 H            1 DEQ201   0.0000
    52 H18         20.3226    39.0777     6.8503 H            1 DEQ201   0.0000
    53 H19         20.3003    40.2130     9.0926 H            1 DEQ201   0.0000
    54 H20         20.7042    38.7373     9.6635 H            1 DEQ201   0.0000
    55 H21         18.6256    38.2042     8.1090 H            1 DEQ201   0.0000
    56 H22         18.2073    39.6322     8.7816 H            1 DEQ201   0.0000
    57 H23         18.7554    38.5331    10.9508 H            1 DEQ201   0.0000
    58 H24         18.6441    37.1353    10.1139 H            1 DEQ201   0.0000
    59 H25         16.4766    39.0189    10.1975 H            1 DEQ201   0.0000
    60 H26         16.6082    37.8146    11.2925 H            1 DEQ201   0.0000
    61 H27         15.6661    36.4158     9.9311 H            1 DEQ201   0.0000
    62 H28         16.7811    36.7371     8.7821 H            1 DEQ201   0.0000
    63 H29         15.0149    38.7975     8.7195 H            1 DEQ201   0.0000
    64 H30         15.2210    37.6598     7.5662 H            1 DEQ201   0.0000
    65 H31         14.1234    39.5876     9.8252 H            1 DEQ201   0.0000
    66 H32         12.5520    40.0290     9.7732 H            1 DEQ201   0.0000
    67 H33         13.1647    39.3487    11.1254 H            1 DEQ201   0.0000
    68 H34         26.2369    39.5814     3.2144 H            1 DEQ201   0.0000
    69 H35         25.8523    40.7551     4.2826 H            1 DEQ201   0.0000
    70 H36         25.4347    39.2059     4.5863 H            1 DEQ201   0.0000
    71 H37          9.3435    36.4129    10.3923 H            1 DEQ201   0.0000
    72 H38          9.6075    34.9363     9.5263 H            1 DEQ201   0.0000
    73 H39         23.9271    39.4495    -0.6753 H            1 DEQ201   0.0000
    74 H40         22.2527    39.8731    -0.8047 H            1 DEQ201   0.0000
@<TRIPOS>BOND
     1    1    2      ar
     2    1    5      ar
     3    2    3      ar
     4    3    4      ar
     5    4    6      ar
     6    5    6      ar
     7    5   10      ar
     8    6    7      ar
     9    7    8      ar
    10    7   33       1
    11    8    9      ar
    12    9   10      ar
    13    9   31       1
    14   10   30       1
    15   11   12      ar
    16   11   16      ar
    17   11   17      ar
    18   12   13      ar
    19   12   20      ar
    20   13   14      ar
    21   13   21       1
    22   14   15      ar
    23   14   32       1
    24   15   16      ar
    25   16   34       1
    26   17   18      ar
    27   18   19      ar
    28   19   20      ar
    29   21   22       1
    30   22   23       1
    31   23   24       1
    32   24   25       1
    33   25   26       1
    34   26   27       1
    35   27   28       1
    36   28   29       1
    37   29   30       1
    38    1   35       1
    39    2   36       1
    40    3   37       1
    41    4   38       1
    42    8   39       1
    43   15   40       1
    44   17   41       1
    45   18   42       1
    46   19   43       1
    47   20   44       1
    48   21   45       1
    49   21   46       1
    50   22   47       1
    51   22   48       1
    52   23   49       1
    53   23   50       1
    54   24   51       1
    55   24   52       1
    56   25   53       1
    57   25   54       1
    58   26   55       1
    59   26   56       1
    60   27   57       1
    61   27   58       1
    62   28   59       1
    63   28   60       1
    64   29   61       1
    65   29   62       1
    66   30   63       1
    67   30   64       1
    68   31   65       1
    69   31   66       1
    70   31   67       1
    71   32   68       1
    72   32   69       1
    73   32   70       1
    74   33   71       1
    75   33   72       1
    76   34   73       1
    77   34   74       1
@<TRIPOS>SUBSTRUCTURE
     1 DEQ201      1 GROUP             4 A     DEQ     0 **** DEQ A 201
