#    Name: 7839
#    Modification time : Wed Aug  9 00:48:51 2017

@<TRIPOS>MOLECULE
7839
   64     0     3     0     0
SMALL
NO_CHARGES


@<TRIPOS>ATOM
      1 CA        -11.7040   48.0230  329.6940 C.3       1 GLL5        0.0000 
      2 CA        -11.4390   45.6560  329.2890 C.3       1 GLL5        0.0000 
      3 CA        -11.0510   46.5040  331.4950 C.3       1 GLL5        0.0000 
      4 CA        -12.4460   49.8730  331.9730 C.3       1 GLL5        0.0000 
      5 CA        -13.7290   49.0730  332.1280 C.3       1 GLL5        0.0000 
      6 CA         -9.2020   51.0010  333.7760 C.3       1 GLL5        0.0000 
      7 CA         -9.2490   52.0630  334.6770 C.3       1 GLL5        0.0000 
      8 CA        -11.4240   51.3470  335.3950 C.3       1 GLL5        0.0000 
      9 CA         -8.0900   48.1830  333.4990 C.3       1 GLL5        0.0000 
     10 CA         -8.4910   48.5350  331.1560 C.3       1 GLL5        0.0000 
     11 CA         -7.2000   48.0900  330.8860 C.3       1 GLL5        0.0000 
     12 CA        -11.7420   46.9430  328.8130 C.3       1 GLL5        0.0000 
     13 CA        -11.0920   45.4210  330.6240 C.3       1 GLL5        0.0000 
     14 CA         -6.3510   47.6940  331.9170 C.3       1 GLL5        0.0000 
     15 CA         -6.8010   47.7330  333.2360 C.3       1 GLL5        0.0000 
     16 CA        -10.7970   52.2100  328.7330 C.3       2 GLP5        0.0000 
     17 CA        -15.5360   44.2380  329.6340 C.3       2 GLP5        0.0000 
     18 CA        -12.6920   41.8770  327.4270 C.3       2 GLP5        0.0000 
     19 CA         -7.7750   43.8520  331.6170 C.3       2 GLP5        0.0000 
     20 CA        -12.8100   53.4270  332.6570 C.3       2 GLP5        0.0000 
     21 CA        -14.3520   45.6520  334.9530 C.3       2 GLP5        0.0000 
     22 CA        -13.9110   53.5230  331.8250 C.3       2 GLP5        0.0000 
     23 CA        -16.7350   46.3780  331.5580 C.3       2 GLP5        0.0000 
     24 CA        -15.9240   51.3540  329.0660 C.3       2 GLP5        0.0000 
     25 CA        -17.0760   49.4520  333.7360 C.3       2 GLP5        0.0000 
     26 CA         -8.5460   52.3060  329.7890 C.3       2 GLP5        0.0000 
     27 CA         -7.8850   49.2450  337.7070 C.3       2 GLP5        0.0000 
     28 CA        -15.3370   52.4730  335.2680 C.3       2 GLP5        0.0000 
     29 CA        -10.0810   45.9400  336.0710 C.3       2 GLP5        0.0000 
     30 CA         -3.5900   50.3430  329.4250 C.3       2 GLP5        0.0000 
     31 CA        -13.5680   49.3890  326.9160 C.3       2 GLP5        0.0000 
     32 CA        -10.5370   44.3200  325.7640 C.3       2 GLP5        0.0000 
     33 CA         -8.4150   47.5350  327.0410 C.3       2 GLP5        0.0000 
     34 CA         -7.6510   44.5730  329.2590 C.3       2 GLP5        0.0000 
     35 CA         -5.8710   50.4390  334.8110 C.3       2 GLP5        0.0000 
     36 CA         -9.9590   49.6480  338.9560 C.3       2 GLP5        0.0000 
     37 CA        -11.2505   50.1165  329.2135 C.3       3 GLC5        0.0000 
     38 CA        -13.4875   44.9470  329.4615 C.3       3 GLC5        0.0000 
     39 CA        -12.0655   43.7665  328.3580 C.3       3 GLC5        0.0000 
     40 CA         -9.4130   45.1780  331.5560 C.3       3 GLC5        0.0000 
     41 CA        -11.6215   51.0415  330.3530 C.3       3 GLC5        0.0000 
     42 CA        -12.6280   51.6500  332.3150 C.3       3 GLC5        0.0000 
     43 CA        -14.0405   47.3625  333.5405 C.3       3 GLC5        0.0000 
     44 CA        -13.8200   51.2980  331.9765 C.3       3 GLC5        0.0000 
     45 CA        -15.2320   47.7255  331.8430 C.3       3 GLC5        0.0000 
     46 CA        -14.8265   50.2135  330.5970 C.3       3 GLC5        0.0000 
     47 CA        -15.4025   49.2625  332.9320 C.3       3 GLC5        0.0000 
     48 CA         -8.8740   51.6535  331.7825 C.3       3 GLC5        0.0000 
     49 CA         -8.5670   50.6540  336.1920 C.3       3 GLC5        0.0000 
     50 CA        -13.3805   51.9100  335.3315 C.3       3 GLC5        0.0000 
     51 CA         -9.0855   47.0615  334.7850 C.3       3 GLC5        0.0000 
     52 CA         -7.9875   48.7140  335.6030 C.3       3 GLC5        0.0000 
     53 CA         -8.5185   50.4205  330.4725 C.3       3 GLC5        0.0000 
     54 CA         -5.3950   49.2165  330.1555 C.3       3 GLC5        0.0000 
     55 CA        -12.6455   48.4360  328.0847 C.3       3 GLC5        0.0000 
     56 CA        -11.0638   45.3098  327.4075 C.3       3 GLC5        0.0000 
     57 CA         -9.9980   47.0523  328.1561 C.3       3 GLC5        0.0000 
     58 CA         -9.4582   45.0558  329.6078 C.3       3 GLC5        0.0000 
     59 CA         -7.5483   50.9855  334.5188 C.3       3 GLC5        0.0000 
     60 CA        -10.4255   50.7198  337.1983 C.3       3 GLC5        0.0000 
     61 CA         -7.1755   45.7827  332.0968 C.3       3 GLC5        0.0000 
     62 CA         -8.1303   47.9237  329.0310 C.3       3 GLC5        0.0000 
     63 CA         -7.7482   46.4428  330.1400 C.3       3 GLC5        0.0000 
     64 CA         -6.4940   49.1616  333.8271 C.3       3 GLC5        0.0000 
@<TRIPOS>BOND
@<TRIPOS>SUBSTRUCTURE
     1 GLL5        1 GROUP        1 Z    GLL  0     ROOT GLL Z 4
     2 GLP5       16 GROUP        1 Z    GLP  0     **** GLP Z 11
     3 GLC5       37 GROUP        1 Z    GLC  0     **** GLC Z 18
@<TRIPOS>SET

