1r5k_GW5_1_ligand
  -OEChem-08111718373D

 48 50  0     1  0  0  0  0  0999 V2000
  -10.3962   52.9977  336.1330 H   0  0  0  0  0  0  0  0  0  0  0  0
  -11.4724   44.8842  328.6540 H   0  0  0  0  0  0  0  0  0  0  0  0
   -8.4808   52.7001  334.7395 H   0  0  0  0  0  0  0  0  0  0  0  0
  -12.2253   51.4650  335.9815 H   0  0  0  0  0  0  0  0  0  0  0  0
  -11.9824   47.0828  327.8524 H   0  0  0  0  0  0  0  0  0  0  0  0
  -10.8789   44.4977  330.9435 H   0  0  0  0  0  0  0  0  0  0  0  0
   -8.3948   50.8797  333.1983 H   0  0  0  0  0  0  0  0  0  0  0  0
  -12.1469   49.6576  334.4209 H   0  0  0  0  0  0  0  0  0  0  0  0
  -11.9318   48.9432  329.3756 H   0  0  0  0  0  0  0  0  0  0  0  0
  -10.8133   46.3606  332.4557 H   0  0  0  0  0  0  0  0  0  0  0  0
   -6.2043   47.4410  333.9834 H   0  0  0  0  0  0  0  0  0  0  0  0
   -6.8779   48.0541  329.9400 H   0  0  0  0  0  0  0  0  0  0  0  0
   -8.4113   48.2284  334.4449 H   0  0  0  0  0  0  0  0  0  0  0  0
   -9.0901   48.8264  330.4102 H   0  0  0  0  0  0  0  0  0  0  0  0
   -4.7694   47.2284  330.6626 H   0  0  0  0  0  0  0  0  0  0  0  0
   -4.4676   46.8901  333.5802 H   0  0  0  0  0  0  0  0  0  0  0  0
  -14.5088   49.6978  332.1671 H   0  0  0  0  0  0  0  0  0  0  0  0
  -13.8342   48.4571  331.3472 H   0  0  0  0  0  0  0  0  0  0  0  0
  -13.6882   48.5377  332.9717 H   0  0  0  0  0  0  0  0  0  0  0  0
  -12.4768   50.4076  331.1285 H   0  0  0  0  0  0  0  0  0  0  0  0
  -12.3308   50.4882  332.7529 H   0  0  0  0  0  0  0  0  0  0  0  0
  -10.3600   52.2360  335.4860 C   0  0  0  0  0  0  0  0  0  0  0  0
  -11.4390   45.6560  329.2890 C   0  0  0  0  0  0  0  0  0  0  0  0
   -9.2490   52.0630  334.6770 C   0  0  0  0  0  0  0  0  0  0  0  0
  -11.4240   51.3470  335.3950 C   0  0  0  0  0  0  0  0  0  0  0  0
  -11.7420   46.9430  328.8130 C   0  0  0  0  0  0  0  0  0  0  0  0
  -11.0920   45.4210  330.6240 C   0  0  0  0  0  0  0  0  0  0  0  0
   -9.2020   51.0010  333.7760 C   0  0  0  0  0  0  0  0  0  0  0  0
  -11.3750   50.2900  334.4860 C   0  0  0  0  0  0  0  0  0  0  0  0
  -11.7040   48.0230  329.6940 C   0  0  0  0  0  0  0  0  0  0  0  0
  -11.0510   46.5040  331.4950 C   0  0  0  0  0  0  0  0  0  0  0  0
   -6.8010   47.7330  333.2360 C   0  0  0  0  0  0  0  0  0  0  0  0
   -7.2000   48.0900  330.8860 C   0  0  0  0  0  0  0  0  0  0  0  0
   -8.0900   48.1830  333.4990 C   0  0  0  0  0  0  0  0  0  0  0  0
   -8.4910   48.5350  331.1560 C   0  0  0  0  0  0  0  0  0  0  0  0
   -6.3510   47.6940  331.9170 C   0  0  0  0  0  0  0  0  0  0  0  0
  -10.2640   50.1060  333.6690 C   0  0  0  0  0  0  0  0  0  0  0  0
   -8.9400   48.5710  332.4690 C   0  0  0  0  0  0  0  0  0  0  0  0
  -11.3430   47.8050  331.0310 C   0  0  0  0  0  0  0  0  0  0  0  0
   -5.0660   47.2610  331.6170 C   0  0  0  0  0  0  0  0  0  0  0  0
   -4.1820   46.8710  332.6220 C   0  0  0  0  0  0  0  0  0  0  0  0
  -10.2190   49.0280  332.7860 C   0  0  0  0  0  0  0  0  0  0  0  0
  -11.3030   48.8900  331.9190 C   0  0  0  0  0  0  0  0  0  0  0  0
   -2.8900   46.4520  332.2780 C   0  0  0  0  0  0  0  0  0  0  0  0
  -13.7290   49.0730  332.1280 C   0  0  0  0  0  0  0  0  0  0  0  0
  -12.4460   49.8730  331.9730 C   0  0  2  0  0  0  0  0  0  0  0  0
   -2.5780   46.4160  331.0930 O   0  5  0  0  0  0  0  0  0  0  0  0
   -2.0410   46.1010  333.1070 O   0  0  0  0  0  0  0  0  0  0  0  0
  1 22  1  0  0  0  0
  2 23  1  0  0  0  0
  3 24  1  0  0  0  0
  4 25  1  0  0  0  0
  5 26  1  0  0  0  0
  6 27  1  0  0  0  0
  7 28  1  0  0  0  0
  8 29  1  0  0  0  0
  9 30  1  0  0  0  0
 10 31  1  0  0  0  0
 11 32  1  0  0  0  0
 12 33  1  0  0  0  0
 13 34  1  0  0  0  0
 14 35  1  0  0  0  0
 15 40  1  0  0  0  0
 16 41  1  0  0  0  0
 17 45  1  0  0  0  0
 18 45  1  0  0  0  0
 19 45  1  0  0  0  0
 20 46  1  0  0  0  0
 21 46  1  0  0  0  0
 22 24  2  0  0  0  0
 22 25  1  0  0  0  0
 23 26  1  0  0  0  0
 23 27  2  0  0  0  0
 24 28  1  0  0  0  0
 25 29  2  0  0  0  0
 26 30  2  0  0  0  0
 27 31  1  0  0  0  0
 28 37  2  0  0  0  0
 29 37  1  0  0  0  0
 30 39  1  0  0  0  0
 31 39  2  0  0  0  0
 32 34  1  0  0  0  0
 32 36  2  0  0  0  0
 33 35  2  0  0  0  0
 33 36  1  0  0  0  0
 34 38  2  0  0  0  0
 35 38  1  0  0  0  0
 36 40  1  0  0  0  0
 37 42  1  0  0  0  0
 38 42  1  0  0  0  0
 39 43  1  0  0  0  0
 40 41  2  0  0  0  0
 41 44  1  0  0  0  0
 42 43  2  0  0  0  0
 43 46  1  0  0  0  0
 44 47  1  0  0  0  0
 44 48  2  0  0  0  0
 45 46  1  0  0  0  0
M  CHG  1  47  -1
M  END
> <scpdb_id>
1r5k_1

$$$$
