#    Name: 27791
#    Modification time : Tue Aug  8 23:07:57 2017

@<TRIPOS>MOLECULE
27791
  127     0    12     0     0
SMALL
NO_CHARGES


@<TRIPOS>ATOM
      1 N          50.1600   16.4090   -5.4030 N.am      1 SEL1        0.0000 
      2 N          51.5110   16.5760   -3.7340 N.am      1 SEL1        0.0000 
      3 NZ         50.1600   16.4090   -5.4030 N.4       2 LYL3        0.0000 
      4 NZ         51.5110   16.5760   -3.7340 N.4       2 LYL3        0.0000 
      5 CA         49.3570   15.8960   -3.1690 C.3       3 GLL5        0.0000 
      6 CA         47.7650   17.8060   -3.4510 C.3       3 GLL5        0.0000 
      7 CA         45.4640   17.4320   -4.0960 C.3       3 GLL5        0.0000 
      8 CA         43.4280   15.4160   -4.9060 C.3       3 GLL5        0.0000 
      9 CA         42.9020   14.2790   -5.7560 C.3       3 GLL5        0.0000 
     10 CA         37.3800   12.6770   -4.7710 C.3       3 GLL5        0.0000 
     11 CA         35.5980   12.9670   -2.6130 C.3       3 GLL5        0.0000 
     12 CA         34.6470   14.8240   -2.0660 C.3       3 GLL5        0.0000 
     13 CA         34.6800   14.2580   -4.1380 C.3       3 GLL5        0.0000 
     14 CA         40.1190   17.1340   -7.3490 C.3       3 GLL5        0.0000 
     15 CA         41.1720   18.6150   -5.6670 C.3       3 GLL5        0.0000 
     16 CA         40.2100   18.4840   -9.4100 C.3       3 GLL5        0.0000 
     17 CA         38.3160   18.7660  -10.8600 C.3       3 GLL5        0.0000 
     18 CA         37.5510   17.9920  -10.0040 C.3       3 GLL5        0.0000 
     19 CA         38.1230   17.4390   -8.8560 C.3       3 GLL5        0.0000 
     20 CA         46.9690   15.5600   -3.8440 C.3       3 GLL5        0.0000 
     21 CA         37.0720   16.0340   -2.5120 C.3       3 GLL5        0.0000 
     22 CA         45.7200   16.0440   -4.1660 C.3       3 GLL5        0.0000 
     23 CA         46.5030   18.2950   -3.7660 C.3       3 GLL5        0.0000 
     24 CA         39.2840   16.0210   -3.4390 C.3       3 GLL5        0.0000 
     25 CA         38.3200   16.6180   -2.6630 C.3       3 GLL5        0.0000 
     26 CA         41.0810   19.5200   -4.6160 C.3       3 GLL5        0.0000 
     27 CA         39.8510   19.9130   -4.1140 C.3       3 GLL5        0.0000 
     28 CA         38.7730   18.5110   -5.7300 C.3       3 GLL5        0.0000 
     29 CA         39.6510   19.0030  -10.5620 C.3       3 GLL5        0.0000 
     30 CZ         38.8838   18.2290   -9.7075 C.ar      4 PHL6        0.0000 
     31 N          51.3900   14.4030   -7.0500 N.am      5 SEP1        0.0000 
     32 N          50.3670   19.2310   -5.8010 N.am      5 SEP1        0.0000 
     33 N          51.5150   19.6040   -3.8640 N.am      5 SEP1        0.0000 
     34 NZ         50.7580   20.0580   -4.8440 N.4       6 LYP3        0.0000 
     35 CA         50.0370   12.7590   -0.0240 C.3       7 GLP5        0.0000 
     36 CA         51.7760   12.8840   -3.7560 C.3       7 GLP5        0.0000 
     37 CA         49.4990   19.5860   -6.9070 C.3       7 GLP5        0.0000 
     38 CA         41.8710   17.4430   -1.4510 C.3       7 GLP5        0.0000 
     39 CA         41.6370   13.5640   -1.3580 C.3       7 GLP5        0.0000 
     40 CA         45.5770   17.1780   -7.6080 C.3       7 GLP5        0.0000 
     41 CA         42.1790   11.2240   -8.8620 C.3       7 GLP5        0.0000 
     42 CA         44.5840   16.7390   -8.4820 C.3       7 GLP5        0.0000 
     43 CA         34.4810    9.6760   -5.2240 C.3       7 GLP5        0.0000 
     44 CA         40.5120   10.6530   -7.0030 C.3       7 GLP5        0.0000 
     45 CA         37.8180    9.4170   -2.7260 C.3       7 GLP5        0.0000 
     46 CA         34.4210   12.8010   -7.7150 C.3       7 GLP5        0.0000 
     47 CA         34.3040    9.1800   -3.9510 C.3       7 GLP5        0.0000 
     48 CA         31.9200   16.1740    0.2480 C.3       7 GLP5        0.0000 
     49 CA         37.3390   15.4610    0.9020 C.3       7 GLP5        0.0000 
     50 CA         35.1840   17.3700   -6.6340 C.3       7 GLP5        0.0000 
     51 CA         31.6500   15.9900   -5.2940 C.3       7 GLP5        0.0000 
     52 CA         40.8780   15.0380  -10.6350 C.3       7 GLP5        0.0000 
     53 CA         43.3490   21.1030   -8.3210 C.3       7 GLP5        0.0000 
     54 CA         35.9720   18.6240  -14.1000 C.3       7 GLP5        0.0000 
     55 CA         37.8740   22.3010   -9.4420 C.3       7 GLP5        0.0000 
     56 CA         37.8090   14.7290  -12.7930 C.3       7 GLP5        0.0000 
     57 CA         34.7810   17.0190  -12.5270 C.3       7 GLP5        0.0000 
     58 CA         36.3580   13.7840   -8.9310 C.3       7 GLP5        0.0000 
     59 CA         48.1800   14.3950   -7.8920 C.3       7 GLP5        0.0000 
     60 CA         46.7240   16.4150   -7.4180 C.3       7 GLP5        0.0000 
     61 CA         47.3940   22.1420   -2.8680 C.3       7 GLP5        0.0000 
     62 CA         45.4890   11.7160   -4.5460 C.3       7 GLP5        0.0000 
     63 CA         37.6820   20.1190   -1.0660 C.3       7 GLP5        0.0000 
     64 CA         43.9340   21.4410   -6.9150 C.3       7 GLP5        0.0000 
     65 CA         42.3570   20.4010   -1.0880 C.3       7 GLP5        0.0000 
     66 CA         39.1120   23.2240   -5.3850 C.3       7 GLP5        0.0000 
     67 CA         36.7680   20.8410   -7.6730 C.3       7 GLP5        0.0000 
     68 CA         43.0530   19.9100  -11.8640 C.3       7 GLP5        0.0000 
     69 CA         39.3460   22.0690   -9.1040 C.3       7 GLP5        0.0000 
     70 CA         34.7450   11.1510   -0.0190 C.3       7 GLP5        0.0000 
     71 CA         45.9330   16.8290   -0.3840 C.3       7 GLP5        0.0000 
     72 CA         32.0920   11.9500   -2.9940 C.3       7 GLP5        0.0000 
     73 CZ         40.4605   15.4428  -11.8765 C.ar      8 PHP6        0.0000 
     74 N          50.7750   15.4060   -6.2265 N.am      9 SEC1        0.0000 
     75 N          50.2635   17.8200   -5.6020 N.am      9 SEC1        0.0000 
     76 N          51.5130   18.0900   -3.7990 N.am      9 SEC1        0.0000 
     77 NZ         50.4590   18.2335   -5.1235 N.4      10 LYC3        0.0000 
     78 NZ         51.1345   18.3170   -4.2890 N.4      10 LYC3        0.0000 
     79 CA         49.6970   14.3275   -1.5965 C.3      11 GLC5        0.0000 
     80 CA         50.5665   14.3900   -3.4625 C.3      11 GLC5        0.0000 
     81 CA         48.6320   18.6960   -5.1790 C.3      11 GLC5        0.0000 
     82 CA         43.6675   17.4375   -2.7735 C.3      11 GLC5        0.0000 
     83 CA         42.5325   14.4900   -3.1320 C.3      11 GLC5        0.0000 
     84 CA         42.6495   16.4295   -3.1785 C.3      11 GLC5        0.0000 
     85 CA         44.5025   16.2970   -6.2570 C.3      11 GLC5        0.0000 
     86 CA         42.5405   12.7515   -7.3090 C.3      11 GLC5        0.0000 
     87 CA         43.7430   15.5090   -7.1190 C.3      11 GLC5        0.0000 
     88 CA         35.9305   11.1765   -4.9975 C.3      11 GLC5        0.0000 
     89 CA         38.9460   11.6650   -5.8870 C.3      11 GLC5        0.0000 
     90 CA         37.5990   11.0470   -3.7485 C.3      11 GLC5        0.0000 
     91 CA         35.9005   12.7390   -6.2430 C.3      11 GLC5        0.0000 
     92 CA         34.9510   11.0735   -3.2820 C.3      11 GLC5        0.0000 
     93 CA         36.7080   11.1920   -2.6695 C.3      11 GLC5        0.0000 
     94 CA         33.2835   15.4990   -0.9090 C.3      11 GLC5        0.0000 
     95 CA         35.9930   15.1425   -0.5820 C.3      11 GLC5        0.0000 
     96 CA         34.5505   13.5295   -5.9265 C.3      11 GLC5        0.0000 
     97 CA         34.9320   15.8140   -5.3860 C.3      11 GLC5        0.0000 
     98 CA         33.1650   15.1240   -4.7160 C.3      11 GLC5        0.0000 
     99 CA         40.4985   16.0860   -8.9920 C.3      11 GLC5        0.0000 
    100 CA         41.5215   18.0290   -3.5590 C.3      11 GLC5        0.0000 
    101 CA         41.7795   19.7935   -8.8655 C.3      11 GLC5        0.0000 
    102 CA         37.1440   18.6950  -12.4800 C.3      11 GLC5        0.0000 
    103 CA         38.0950   20.5335  -10.1510 C.3      11 GLC5        0.0000 
    104 CA         37.6800   16.3605  -11.3985 C.3      11 GLC5        0.0000 
    105 CA         36.1660   17.5055  -11.2655 C.3      11 GLC5        0.0000 
    106 CA         37.2405   15.6115   -8.8935 C.3      11 GLC5        0.0000 
    107 CA         47.5745   14.9775   -5.8680 C.3      11 GLC5        0.0000 
    108 CA         37.2055   15.7475   -0.8050 C.3      11 GLC5        0.0000 
    109 CA         46.2220   16.2295   -5.7920 C.3      11 GLC5        0.0000 
    110 CA         47.2640   20.0962   -3.2382 C.3      11 GLC5        0.0000 
    111 CA         45.9168   13.7590   -4.2755 C.3      11 GLC5        0.0000 
    112 CA         44.3270   13.2817   -4.9385 C.3      11 GLC5        0.0000 
    113 CA         40.3872   14.4960   -2.5608 C.3      11 GLC5        0.0000 
    114 CA         40.3365   16.8813   -2.2510 C.3      11 GLC5        0.0000 
    115 CA         37.6890   18.2225   -1.8268 C.3      11 GLC5        0.0000 
    116 CA         42.5302   20.2542   -6.0282 C.3      11 GLC5        0.0000 
    117 CA         41.4115   20.0587   -2.7265 C.3      11 GLC5        0.0000 
    118 CA         38.4763   19.8910   -2.7277 C.3      11 GLC5        0.0000 
    119 CA         39.3450   21.3944   -4.9500 C.3      11 GLC5        0.0000 
    120 CA         37.9044   19.8509   -6.4969 C.3      11 GLC5        0.0000 
    121 CA         41.4918   19.3268  -10.9250 C.3      11 GLC5        0.0000 
    122 CA         39.6382   20.4062   -9.5450 C.3      11 GLC5        0.0000 
    123 CA         37.4686   19.3096   -8.5136 C.3      11 GLC5        0.0000 
    124 CA         34.9979   12.6036   -1.3429 C.3      11 GLC5        0.0000 
    125 CA         46.3213   16.9632   -2.0939 C.3      11 GLC5        0.0000 
    126 CA         33.6734   12.9678   -2.9599 C.3      11 GLC5        0.0000 
    127 CZ         39.6722   16.8359  -10.7920 C.ar     12 PHC6        0.0000 
@<TRIPOS>BOND
@<TRIPOS>SUBSTRUCTURE
     1 SEL1        1 GROUP        1 Z    SEL  0     ROOT SEL Z 0
     2 LYL3        3 GROUP        1 Z    LYL  0     **** LYL Z 2
     3 GLL5        5 GROUP        1 Z    GLL  0     **** GLL Z 4
     4 PHL6       30 GROUP        1 Z    PHL  0     **** PHL Z 6
     5 SEP1       31 GROUP        1 Z    SEP  0     **** SEP Z 7
     6 LYP3       34 GROUP        1 Z    LYP  0     **** LYP Z 9
     7 GLP5       35 GROUP        1 Z    GLP  0     **** GLP Z 11
     8 PHP6       73 GROUP        1 Z    PHP  0     **** PHP Z 13
     9 SEC1       74 GROUP        1 Z    SEC  0     **** SEC Z 14
    10 LYC3       77 GROUP        1 Z    LYC  0     **** LYC Z 16
    11 GLC5       79 GROUP        1 Z    GLC  0     **** GLC Z 18
    12 PHC6      127 GROUP        1 Z    PHC  0     **** PHC Z 20
@<TRIPOS>SET

