@<TRIPOS>MOLECULE
3ipq_965_1_ligand
   72    75     1     0     0
SMALL
NO_CHARGES


@<TRIPOS>ATOM
     1 O37         50.1600    16.4090    -5.4030 O.co2        1 965801   0.0000
     2 C35         50.4010    16.3250    -4.1820 C.2          1 965801   0.0000
     3 O36         51.5110    16.5760    -3.7340 O.co2        1 965801  -1.0000
     4 C34         49.3570    15.8960    -3.1690 C.3          1 965801   0.0000
     5 C32         47.9990    16.4340    -3.5080 C.ar         1 965801   0.0000
     6 C31         47.7650    17.8060    -3.4510 C.ar         1 965801   0.0000
     7 C30         46.5030    18.2950    -3.7660 C.ar         1 965801   0.0000
     8 C29         45.4640    17.4320    -4.0960 C.ar         1 965801   0.0000
     9 C28         45.7200    16.0440    -4.1660 C.ar         1 965801   0.0000
    10 O27         44.7580    15.1300    -4.4810 O.3          1 965801   0.0000
    11 C26         43.4280    15.4160    -4.9060 C.3          1 965801   0.0000
    12 C25         42.9020    14.2790    -5.7560 C.3          1 965801   0.0000
    13 C17         41.8150    14.7240    -6.7210 C.3          1 965801   0.0000
    14 N09         40.5000    14.9460    -6.1380 N.4          1 965801   1.0000
    15 C16         40.0890    14.2170    -4.9240 C.3          1 965801   0.0000
    16 C18         38.9910    14.8350    -4.0880 C.ar         1 965801   0.0000
    17 C23         39.2840    16.0210    -3.4390 C.ar         1 965801   0.0000
    18 C22         38.3200    16.6180    -2.6630 C.ar         1 965801   0.0000
    19 C21         37.0720    16.0340    -2.5120 C.ar         1 965801   0.0000
    20 C20         36.7550    14.8450    -3.1620 C.ar         1 965801   0.0000
    21 C19         37.7360    14.2410    -3.9460 C.ar         1 965801   0.0000
    22 CL4         37.3800    12.6770    -4.7710 Cl           1 965801   0.0000
    23 C39         35.3790    14.2170    -2.9940 C.3          1 965801   0.0000
    24 F41         35.5980    12.9670    -2.6130 F            1 965801   0.0000
    25 F40         34.6470    14.8240    -2.0660 F            1 965801   0.0000
    26 F42         34.6800    14.2580    -4.1380 F            1 965801   0.0000
    27 C08         39.5430    15.7540    -6.9170 C.3          1 965801   0.0000
    28 C07         40.1190    17.1340    -7.3490 C.3          1 965801   0.0000
    29 C01         40.0100    18.1060    -6.2230 C.ar         1 965801   0.0000
    30 C02         41.1720    18.6150    -5.6670 C.ar         1 965801   0.0000
    31 C03         41.0810    19.5200    -4.6160 C.ar         1 965801   0.0000
    32 C04         39.8510    19.9130    -4.1140 C.ar         1 965801   0.0000
    33 C05         38.6900    19.4130    -4.6650 C.ar         1 965801   0.0000
    34 C06         38.7730    18.5110    -5.7300 C.ar         1 965801   0.0000
    35 C10         39.4520    17.6900    -8.5530 C.ar         1 965801   0.0000
    36 C15         40.2100    18.4840    -9.4100 C.ar         1 965801   0.0000
    37 C14         39.6510    19.0030   -10.5620 C.ar         1 965801   0.0000
    38 C13         38.3160    18.7660   -10.8600 C.ar         1 965801   0.0000
    39 C12         37.5510    17.9920   -10.0040 C.ar         1 965801   0.0000
    40 C11         38.1230    17.4390    -8.8560 C.ar         1 965801   0.0000
    41 C33         46.9690    15.5600    -3.8440 C.ar         1 965801   0.0000
    42 H1          49.6233    16.2344    -2.2665 H            1 965801   0.0000
    43 H2          49.3144    14.8971    -3.1512 H            1 965801   0.0000
    44 H3          48.4978    18.4327    -3.1861 H            1 965801   0.0000
    45 H4          46.3398    19.2815    -3.7552 H            1 965801   0.0000
    46 H5          44.5483    17.7886    -4.2812 H            1 965801   0.0000
    47 H6          43.4258    16.2597    -5.4429 H            1 965801   0.0000
    48 H7          42.8411    15.5295    -4.1043 H            1 965801   0.0000
    49 H8          42.5262    13.5756    -5.1527 H            1 965801   0.0000
    50 H9          43.6606    13.8957    -6.2829 H            1 965801   0.0000
    51 H10         41.7232    14.0198    -7.4251 H            1 965801   0.0000
    52 H11         42.1117    15.5807    -7.1430 H            1 965801   0.0000
    53 H12         40.8959    14.1243    -4.3406 H            1 965801   0.0000
    54 H13         39.7772    13.3103    -5.2081 H            1 965801   0.0000
    55 H14         40.1874    16.4392    -3.5336 H            1 965801   0.0000
    56 H15         38.5208    17.4826    -2.2025 H            1 965801   0.0000
    57 H16         36.3897    16.4733    -1.9277 H            1 965801   0.0000
    58 H17         38.7288    15.9099    -6.3577 H            1 965801   0.0000
    59 H18         39.2901    15.2433    -7.7387 H            1 965801   0.0000
    60 H19         41.0888    17.0124    -7.5605 H            1 965801   0.0000
    61 H20         42.0656    18.3348    -6.0175 H            1 965801   0.0000
    62 H21         41.9175    19.8938    -4.2154 H            1 965801   0.0000
    63 H22         39.8051    20.5592    -3.3522 H            1 965801   0.0000
    64 H23         37.7990    19.6923    -4.3070 H            1 965801   0.0000
    65 H24         37.9349    18.1531    -6.1418 H            1 965801   0.0000
    66 H25         41.1656    18.6799    -9.1900 H            1 965801   0.0000
    67 H26         40.2103    19.5515   -11.1836 H            1 965801   0.0000
    68 H27         37.9093    19.1520   -11.6880 H            1 965801   0.0000
    69 H28         36.5859    17.8284   -10.2083 H            1 965801   0.0000
    70 H29         37.5733    16.8616    -8.2523 H            1 965801   0.0000
    71 H30         47.1368    14.5742    -3.8517 H            1 965801   0.0000
    72 H31         40.8140    15.7375    -5.6136 H            1 965801   0.0000
@<TRIPOS>BOND
     1    1    2      ar
     2    2    3      ar
     3    2    4       1
     4    4    5       1
     5    5    6      ar
     6    5   41      ar
     7    6    7      ar
     8    7    8      ar
     9    8    9      ar
    10    9   10       1
    11    9   41      ar
    12   10   11       1
    13   11   12       1
    14   12   13       1
    15   13   14       1
    16   14   15       1
    17   14   27       1
    18   15   16       1
    19   16   17      ar
    20   16   21      ar
    21   17   18      ar
    22   18   19      ar
    23   19   20      ar
    24   20   21      ar
    25   20   23       1
    26   21   22       1
    27   23   24       1
    28   23   25       1
    29   23   26       1
    30   27   28       1
    31   28   29       1
    32   28   35       1
    33   29   30      ar
    34   29   34      ar
    35   30   31      ar
    36   31   32      ar
    37   32   33      ar
    38   33   34      ar
    39   35   36      ar
    40   35   40      ar
    41   36   37      ar
    42   37   38      ar
    43   38   39      ar
    44   39   40      ar
    45   41   71       1
    46    4   42       1
    47    4   43       1
    48    6   44       1
    49    7   45       1
    50    8   46       1
    51   11   47       1
    52   11   48       1
    53   12   49       1
    54   12   50       1
    55   13   51       1
    56   13   52       1
    57   15   53       1
    58   15   54       1
    59   17   55       1
    60   18   56       1
    61   19   57       1
    62   27   58       1
    63   27   59       1
    64   28   60       1
    65   30   61       1
    66   31   62       1
    67   32   63       1
    68   33   64       1
    69   34   65       1
    70   36   66       1
    71   37   67       1
    72   38   68       1
    73   39   69       1
    74   40   70       1
    75   14   72       1
@<TRIPOS>SUBSTRUCTURE
     1 965801      1 GROUP             4 A     965     0 **** 965 A 801
