#    Name: 22048
#    Modification time : Tue Aug  8 18:59:55 2017

@<TRIPOS>MOLECULE
22048
  122     0     9     0     0
SMALL
NO_CHARGES


@<TRIPOS>ATOM
      1 N          16.3410    8.5980   19.3420 N.am      1 SEL1        0.0000 
      2 N          10.2420   -0.7520   28.3940 N.am      1 SEL1        0.0000 
      3 N          14.3890    4.9190   18.2980 N.am      1 SEL1        0.0000 
      4 N          13.7680    6.9850   14.2920 N.am      1 SEL1        0.0000 
      5 O          16.3410    8.5980   19.3420 O.2       2 ALL2        0.0000 
      6 O          10.2420   -0.7520   28.3940 O.2       2 ALL2        0.0000 
      7 O          14.3890    4.9190   18.2980 O.2       2 ALL2        0.0000 
      8 O          13.7680    6.9850   14.2920 O.2       2 ALL2        0.0000 
      9 CA         14.8080    6.0380   19.0690 C.3       3 GLL5        0.0000 
     10 CA         14.2840    7.4410   18.4440 C.3       3 GLL5        0.0000 
     11 CA         14.9110    8.7130   19.3480 C.3       3 GLL5        0.0000 
     12 CA         14.3940    8.5480   20.8990 C.3       3 GLL5        0.0000 
     13 CA         14.5130    6.9710   26.0340 C.3       3 GLL5        0.0000 
     14 CA         14.2540    5.9190   20.5420 C.3       3 GLL5        0.0000 
     15 CA         13.2560    6.8210   27.0190 C.3       3 GLL5        0.0000 
     16 CA         13.0920    5.2500   27.5770 C.3       3 GLL5        0.0000 
     17 CA         15.2170    2.8980   25.0260 C.3       3 GLL5        0.0000 
     18 CA         14.3660    1.8440   25.7870 C.3       3 GLL5        0.0000 
     19 CA         11.9380    4.1960   25.4170 C.3       3 GLL5        0.0000 
     20 CA         12.7980    2.1640   28.3430 C.3       3 GLL5        0.0000 
     21 CA         13.5490    0.7910   28.7320 C.3       3 GLL5        0.0000 
     22 CA         11.1240    2.2280   28.3240 C.3       3 GLL5        0.0000 
     23 CA         10.5510    1.2170   27.3460 C.3       3 GLL5        0.0000 
     24 CA          9.1950   -0.3730   26.3910 C.3       3 GLL5        0.0000 
     25 CA         13.5380    8.1210   16.4560 C.3       3 GLL5        0.0000 
     26 CA         14.1280    8.2440   14.8780 C.3       3 GLL5        0.0000 
     27 CA          7.3870    1.9740   27.7060 C.3       3 GLL5        0.0000 
     28 CA          8.1670   -1.6240   26.2360 C.3       3 GLL5        0.0000 
     29 CA         14.5510    7.1360   21.5440 C.3       3 GLL5        0.0000 
     30 CA         14.4340    6.9300   22.8700 C.3       3 GLL5        0.0000 
     31 N          17.6310    9.7810   17.2510 N.am      4 SEP1        0.0000 
     32 N          12.2370   -2.7330   27.6200 N.am      4 SEP1        0.0000 
     33 N          15.0600    4.7190   15.6500 N.am      4 SEP1        0.0000 
     34 N          12.3570    7.9180   12.1440 N.am      4 SEP1        0.0000 
     35 O          17.3110   10.4600   21.3740 O.2       5 ALP2        0.0000 
     36 O          11.0670   -0.7100   30.8720 O.2       5 ALP2        0.0000 
     37 O          11.9020    4.1160   18.5250 O.2       5 ALP2        0.0000 
     38 O          14.5290    5.4550   11.3910 O.2       5 ALP2        0.0000 
     39 CA         11.8910    2.7260   18.2030 C.3       6 GLP5        0.0000 
     40 CA         17.5330    3.6650   17.6330 C.3       6 GLP5        0.0000 
     41 CA         17.6310    7.8790   15.7990 C.3       6 GLP5        0.0000 
     42 CA         10.3510    6.7830   20.2600 C.3       6 GLP5        0.0000 
     43 CA         17.6070    9.2580   15.9760 C.3       6 GLP5        0.0000 
     44 CA         14.9280   11.8500   16.9640 C.3       6 GLP5        0.0000 
     45 CA         10.9070   10.1740   18.8640 C.3       6 GLP5        0.0000 
     46 CA         17.3250    8.6370   26.5190 C.3       6 GLP5        0.0000 
     47 CA         14.6330    1.9000   21.1630 C.3       6 GLP5        0.0000 
     48 CA          9.1010    7.4340   26.3730 C.3       6 GLP5        0.0000 
     49 CA         16.8190    8.8140   27.8140 C.3       6 GLP5        0.0000 
     50 CA         12.4960   10.8650   27.6490 C.3       6 GLP5        0.0000 
     51 CA          9.0370    6.3790   28.6440 C.3       6 GLP5        0.0000 
     52 CA         14.0770   -1.9670   24.6930 C.3       6 GLP5        0.0000 
     53 CA         10.6140    7.2910   22.6770 C.3       6 GLP5        0.0000 
     54 CA          9.9650    1.7700   23.4810 C.3       6 GLP5        0.0000 
     55 CA         13.2400    4.2620   31.7720 C.3       6 GLP5        0.0000 
     56 CA         15.2300   -1.1630   31.6670 C.3       6 GLP5        0.0000 
     57 CA          8.1490    3.8730   31.1260 C.3       6 GLP5        0.0000 
     58 CA         10.3230   10.2980   17.6080 C.3       6 GLP5        0.0000 
     59 CA         17.5930    7.3450   14.5250 C.3       6 GLP5        0.0000 
     60 CA          7.7850    5.3390   26.7430 C.3       6 GLP5        0.0000 
     61 CA          6.8500   -5.2700   27.2210 C.3       6 GLP5        0.0000 
     62 CA          5.7250   -3.4420   23.4260 C.3       6 GLP5        0.0000 
     63 CA         17.9680    5.9460   22.0410 C.3       6 GLP5        0.0000 
     64 CA         17.6240   11.5370   20.5090 C.3       6 GLP5        0.0000 
     65 CA         13.8940   11.8780   20.8460 C.3       6 GLP5        0.0000 
     66 CA         13.7190    6.5350   30.8470 C.3       6 GLP5        0.0000 
     67 CA         18.2620    0.2000   24.9890 C.3       6 GLP5        0.0000 
     68 CA          4.5160    1.3430   29.4040 C.3       6 GLP5        0.0000 
     69 CA         10.1880   -3.5400   23.6820 C.3       6 GLP5        0.0000 
     70 CA          9.9630    6.9170   14.7150 C.3       6 GLP5        0.0000 
     71 N          16.9860    9.1895   18.2965 N.am      7 SEC1        0.0000 
     72 N          11.2395   -1.7425   28.0070 N.am      7 SEC1        0.0000 
     73 N          14.7245    4.8190   16.9740 N.am      7 SEC1        0.0000 
     74 N          13.0625    7.4515   13.2180 N.am      7 SEC1        0.0000 
     75 N          14.4140    5.8520   14.9710 N.am      7 SEC1        0.0000 
     76 O          16.8260    9.5290   20.3580 O.2       8 ALC2        0.0000 
     77 O          10.6545   -0.7310   29.6330 O.2       8 ALC2        0.0000 
     78 O          13.1455    4.5175   18.4115 O.2       8 ALC2        0.0000 
     79 O          14.1485    6.2200   12.8415 O.2       8 ALC2        0.0000 
     80 CA         13.3495    4.3820   18.6360 C.3       9 GLC5        0.0000 
     81 CA         16.1705    4.8515   18.3510 C.3       9 GLC5        0.0000 
     82 CA         15.9575    7.6600   17.1215 C.3       9 GLC5        0.0000 
     83 CA         12.3175    7.1120   19.3520 C.3       9 GLC5        0.0000 
     84 CA         16.2590    8.9855   17.6620 C.3       9 GLC5        0.0000 
     85 CA         14.9195   10.2815   18.1560 C.3       9 GLC5        0.0000 
     86 CA         12.6505    9.3610   19.8815 C.3       9 GLC5        0.0000 
     87 CA         15.9190    7.8040   26.2765 C.3       9 GLC5        0.0000 
     88 CA         12.3025    6.3510   20.4010 C.3       9 GLC5        0.0000 
     89 CA         14.4435    3.9095   20.8525 C.3       9 GLC5        0.0000 
     90 CA         11.1785    7.1275   26.6960 C.3       9 GLC5        0.0000 
     91 CA         15.0375    7.8175   27.4165 C.3       9 GLC5        0.0000 
     92 CA         12.8760    8.8430   27.3340 C.3       9 GLC5        0.0000 
     93 CA         11.0645    5.8145   28.1105 C.3       9 GLC5        0.0000 
     94 CA         14.9250    2.3990   23.0945 C.3       9 GLC5        0.0000 
     95 CA         14.2215   -0.0615   25.2400 C.3       9 GLC5        0.0000 
     96 CA         10.5195    5.8150   25.8950 C.3       9 GLC5        0.0000 
     97 CA         11.2760    5.7435   24.0470 C.3       9 GLC5        0.0000 
     98 CA         10.9515    2.9830   24.4490 C.3       9 GLC5        0.0000 
     99 CA         13.0190    3.2130   30.0575 C.3       9 GLC5        0.0000 
    100 CA         14.3895   -0.1860   30.1995 C.3       9 GLC5        0.0000 
    101 CA          9.6365    3.0505   29.7250 C.3       9 GLC5        0.0000 
    102 CA         10.2580    1.4935   25.4135 C.3       9 GLC5        0.0000 
    103 CA          9.5800    0.6985   24.9360 C.3       9 GLC5        0.0000 
    104 CA         15.5845    8.0000   16.1275 C.3       9 GLC5        0.0000 
    105 CA         11.9305    9.2095   17.0320 C.3       9 GLC5        0.0000 
    106 CA         15.8605    7.7945   14.7015 C.3       9 GLC5        0.0000 
    107 CA          7.5860    3.6565   27.2245 C.3       9 GLC5        0.0000 
    108 CA          7.5085   -3.4470   26.7285 C.3       9 GLC5        0.0000 
    109 CA          6.9460   -2.5330   24.8310 C.3       9 GLC5        0.0000 
    110 CA         16.2495    5.9622   20.9232 C.3       9 GLC5        0.0000 
    111 CA         12.7523    9.1255   18.8800 C.3       9 GLC5        0.0000 
    112 CA         16.1382   10.0838   20.3163 C.3       9 GLC5        0.0000 
    113 CA         14.2733   10.2543   20.4848 C.3       9 GLC5        0.0000 
    114 CA         16.2302    6.4895   22.1240 C.3       9 GLC5        0.0000 
    115 CA         12.5336    7.3385   22.3614 C.3       9 GLC5        0.0000 
    116 CA         13.4465    6.2852   29.0725 C.3       9 GLC5        0.0000 
    117 CA         16.5267    1.2855   25.1977 C.3       9 GLC5        0.0000 
    118 CA          6.1638    1.3542   28.7555 C.3       9 GLC5        0.0000 
    119 CA          7.9802    2.6193   29.6165 C.3       9 GLC5        0.0000 
    120 CA          9.4345   -2.2692   24.9977 C.3       9 GLC5        0.0000 
    121 CA         14.3805   10.0162   16.3155 C.3       9 GLC5        0.0000 
    122 CA         11.8980    7.5497   15.1910 C.3       9 GLC5        0.0000 
@<TRIPOS>BOND
@<TRIPOS>SUBSTRUCTURE
     1 SEL1        1 GROUP        1 Z    SEL  0     ROOT SEL Z 0
     2 ALL2        5 GROUP        1 Z    ALL  0     **** ALL Z 1
     3 GLL5        9 GROUP        1 Z    GLL  0     **** GLL Z 4
     4 SEP1       31 GROUP        1 Z    SEP  0     **** SEP Z 7
     5 ALP2       35 GROUP        1 Z    ALP  0     **** ALP Z 8
     6 GLP5       39 GROUP        1 Z    GLP  0     **** GLP Z 11
     7 SEC1       71 GROUP        1 Z    SEC  0     **** SEC Z 14
     8 ALC2       76 GROUP        1 Z    ALC  0     **** ALC Z 15
     9 GLC5       80 GROUP        1 Z    GLC  0     **** GLC Z 18
@<TRIPOS>SET

