@<TRIPOS>MOLECULE
2zl9_VDA_1_ligand
   84    86     1     0     0
SMALL
NO_CHARGES


@<TRIPOS>ATOM
     1 O2          16.3410     8.5980    19.3420 O.3          1 VDA500   0.0000
     2 C1          14.8080     6.0380    19.0690 C.3          1 VDA500   0.0000
     3 C2          14.2840     7.4410    18.4440 C.3          1 VDA500   0.0000
     4 C3          14.9110     8.7130    19.3480 C.3          1 VDA500   0.0000
     5 C4          14.3940     8.5480    20.8990 C.3          1 VDA500   0.0000
     6 C5          14.5510     7.1360    21.5440 C.3          1 VDA500   0.0000
     7 C6          14.4340     6.9300    22.8700 C.3          1 VDA500   0.0000
     8 C7          14.9500     5.8200    23.7210 C.2          1 VDA500   0.0000
     9 C8          14.7270     5.7010    24.9460 C.2          1 VDA500   0.0000
    10 C9          14.5130     6.9710    26.0340 C.3          1 VDA500   0.0000
    11 C10         14.2540     5.9190    20.5420 C.3          1 VDA500   0.0000
    12 C11         13.2560     6.8210    27.0190 C.3          1 VDA500   0.0000
    13 C12         13.0920     5.2500    27.5770 C.3          1 VDA500   0.0000
    14 C13         13.3020     4.0410    26.4080 C.3          1 VDA500   0.0000
    15 C14         14.7280     4.3520    25.7280 C.3          1 VDA500   0.0000
    16 C15         15.2170     2.8980    25.0260 C.3          1 VDA500   0.0000
    17 C16         14.3660     1.8440    25.7870 C.3          1 VDA500   0.0000
    18 C17         13.6240     2.5980    26.9440 C.3          1 VDA500   0.0000
    19 C18         11.9380     4.1960    25.4170 C.3          1 VDA500   0.0000
    20 C20         12.7980     2.1640    28.3430 C.3          1 VDA500   0.0000
    21 C21         13.5490     0.7910    28.7320 C.3          1 VDA500   0.0000
    22 S22         11.1240     2.2280    28.3240 S.3          1 VDA500   0.0000
    23 C23         10.5510     1.2170    27.3460 C.3          1 VDA500   0.0000
    24 C25          9.3350     0.3720    27.8180 C.3          1 VDA500   0.0000
    25 O3          10.2420    -0.7520    28.3940 O.3          1 VDA500   0.0000
    26 C26          8.2360     0.7570    28.5080 C.3          1 VDA500   0.0000
    27 C27          9.1950    -0.3730    26.3910 C.3          1 VDA500   0.0000
    28 O1          14.3890     4.9190    18.2980 O.3          1 VDA500   0.0000
    29 O4          14.6250     7.6200    17.0800 O.3          1 VDA500   0.0000
    30 C30         13.5380     8.1210    16.4560 C.3          1 VDA500   0.0000
    31 C31         14.1280     8.2440    14.8780 C.3          1 VDA500   0.0000
    32 O5          13.7680     6.9850    14.2920 O.3          1 VDA500   0.0000
    33 C29          7.3870     1.9740    27.7060 C.3          1 VDA500   0.0000
    34 C28          8.1670    -1.6240    26.2360 C.3          1 VDA500   0.0000
    35 H1          16.7378     9.3455    19.8747 H            1 VDA500   0.0000
    36 H2          15.8074     6.0521    19.1004 H            1 VDA500   0.0000
    37 H3          13.2873     7.4644    18.5221 H            1 VDA500   0.0000
    38 H4          14.6239     9.5930    18.9696 H            1 VDA500   0.0000
    39 H5          13.4227     8.7850    20.9214 H            1 VDA500   0.0000
    40 H6          14.9083     9.1963    21.4604 H            1 VDA500   0.0000
    41 H7          15.5490     7.0909    21.5000 H            1 VDA500   0.0000
    42 H8          13.4466     6.9184    23.0279 H            1 VDA500   0.0000
    43 H9          14.8274     7.7532    23.2794 H            1 VDA500   0.0000
    44 H10         15.5143     5.1212    23.2814 H            1 VDA500   0.0000
    45 H11         14.3949     7.8130    25.5075 H            1 VDA500   0.0000
    46 H12         15.3385     7.0411    26.5941 H            1 VDA500   0.0000
    47 H13         14.6507     5.0946    20.9458 H            1 VDA500   0.0000
    48 H14         13.2612     5.8160    20.4815 H            1 VDA500   0.0000
    49 H15         12.4250     7.0784    26.5258 H            1 VDA500   0.0000
    50 H16         13.3821     7.4314    27.8010 H            1 VDA500   0.0000
    51 H17         12.1737     5.1527    27.9607 H            1 VDA500   0.0000
    52 H18         13.7710     5.1052    28.2967 H            1 VDA500   0.0000
    53 H19         15.3555     4.4954    26.4933 H            1 VDA500   0.0000
    54 H20         16.1945     2.7411    25.1666 H            1 VDA500   0.0000
    55 H21         15.0148     2.8850    24.0467 H            1 VDA500   0.0000
    56 H22         14.9588     1.1333    26.1657 H            1 VDA500   0.0000
    57 H23         13.7009     1.4278    25.1670 H            1 VDA500   0.0000
    58 H24         14.4609     2.8687    27.4197 H            1 VDA500   0.0000
    59 H25         11.9764     3.5127    24.6878 H            1 VDA500   0.0000
    60 H26         11.1119     4.0552    25.9626 H            1 VDA500   0.0000
    61 H27         11.9202     5.1116    25.0153 H            1 VDA500   0.0000
    62 H28         13.0814     2.8274    29.0355 H            1 VDA500   0.0000
    63 H29         13.1466     0.4160    29.5672 H            1 VDA500   0.0000
    64 H30         13.4456     0.1319    27.9871 H            1 VDA500   0.0000
    65 H31         14.5205     0.9737    28.8829 H            1 VDA500   0.0000
    66 H32         11.2847     0.5800    27.1094 H            1 VDA500   0.0000
    67 H33         10.2681     1.7183    26.5283 H            1 VDA500   0.0000
    68 H34         10.4535    -0.5521    29.3507 H            1 VDA500   0.0000
    69 H35          8.5195     1.0971    29.4047 H            1 VDA500   0.0000
    70 H36          7.6347    -0.0332    28.6261 H            1 VDA500   0.0000
    71 H37         10.1042    -0.7125    26.1501 H            1 VDA500   0.0000
    72 H38          8.9115     0.3199    25.7281 H            1 VDA500   0.0000
    73 H39         13.5054     4.5940    18.6351 H            1 VDA500   0.0000
    74 H40         13.2780     9.0135    16.8247 H            1 VDA500   0.0000
    75 H41         12.7585     7.4972    16.5122 H            1 VDA500   0.0000
    76 H42         15.1201     8.3698    14.8753 H            1 VDA500   0.0000
    77 H43         13.6945     9.0026    14.3916 H            1 VDA500   0.0000
    78 H44         14.4374     6.7403    13.5905 H            1 VDA500   0.0000
    79 H45          6.5846     2.2311    28.2446 H            1 VDA500   0.0000
    80 H46          7.9789     2.7713    27.5883 H            1 VDA500   0.0000
    81 H47          7.0941     1.6410    26.8097 H            1 VDA500   0.0000
    82 H48          8.2005    -1.9687    25.2979 H            1 VDA500   0.0000
    83 H49          8.4306    -2.3524    26.8684 H            1 VDA500   0.0000
    84 H50          7.2379    -1.3200    26.4464 H            1 VDA500   0.0000
@<TRIPOS>BOND
     1    1    4       1
     2    2    3       1
     3    2   11       1
     4    2   28       1
     5    3    4       1
     6    3   29       1
     7    4    5       1
     8    5    6       1
     9    6    7       1
    10    6   11       1
    11    7    8       1
    12    8    9       2
    13    9   10       1
    14    9   15       1
    15   10   12       1
    16   12   13       1
    17   13   14       1
    18   14   15       1
    19   14   18       1
    20   14   19       1
    21   15   16       1
    22   16   17       1
    23   17   18       1
    24   18   20       1
    25   20   21       1
    26   20   22       1
    27   22   23       1
    28   23   24       1
    29   24   25       1
    30   24   26       1
    31   24   27       1
    32   26   33       1
    33   27   34       1
    34   29   30       1
    35   30   31       1
    36   31   32       1
    37    1   35       1
    38    2   36       1
    39    3   37       1
    40    4   38       1
    41    5   39       1
    42    5   40       1
    43    6   41       1
    44    7   42       1
    45    7   43       1
    46    8   44       1
    47   10   45       1
    48   10   46       1
    49   11   47       1
    50   11   48       1
    51   12   49       1
    52   12   50       1
    53   13   51       1
    54   13   52       1
    55   15   53       1
    56   16   54       1
    57   16   55       1
    58   17   56       1
    59   17   57       1
    60   18   58       1
    61   19   59       1
    62   19   60       1
    63   19   61       1
    64   20   62       1
    65   21   63       1
    66   21   64       1
    67   21   65       1
    68   23   66       1
    69   23   67       1
    70   25   68       1
    71   26   69       1
    72   26   70       1
    73   27   71       1
    74   27   72       1
    75   28   73       1
    76   30   74       1
    77   30   75       1
    78   31   76       1
    79   31   77       1
    80   32   78       1
    81   33   79       1
    82   33   80       1
    83   33   81       1
    84   34   82       1
    85   34   83       1
    86   34   84       1
@<TRIPOS>SUBSTRUCTURE
     1 VDA500      1 GROUP             4 A     VDA     0 **** VDA A 500
