2zl9_VDA_1_ligand
  -OEChem-08111718373D

 84 86  0     1  0  0  0  0  0999 V2000
   15.5143    5.1212   23.2814 H   0  0  0  0  0  0  0  0  0  0  0  0
   14.3949    7.8130   25.5075 H   0  0  0  0  0  0  0  0  0  0  0  0
   15.3385    7.0411   26.5941 H   0  0  0  0  0  0  0  0  0  0  0  0
   12.4250    7.0784   26.5258 H   0  0  0  0  0  0  0  0  0  0  0  0
   13.3821    7.4314   27.8010 H   0  0  0  0  0  0  0  0  0  0  0  0
   16.1945    2.7411   25.1666 H   0  0  0  0  0  0  0  0  0  0  0  0
   15.0148    2.8850   24.0467 H   0  0  0  0  0  0  0  0  0  0  0  0
   14.9588    1.1333   26.1657 H   0  0  0  0  0  0  0  0  0  0  0  0
   13.7009    1.4278   25.1670 H   0  0  0  0  0  0  0  0  0  0  0  0
   12.1737    5.1527   27.9607 H   0  0  0  0  0  0  0  0  0  0  0  0
   13.7710    5.1052   28.2967 H   0  0  0  0  0  0  0  0  0  0  0  0
   13.4227    8.7850   20.9214 H   0  0  0  0  0  0  0  0  0  0  0  0
   14.9083    9.1963   21.4604 H   0  0  0  0  0  0  0  0  0  0  0  0
   14.6507    5.0946   20.9458 H   0  0  0  0  0  0  0  0  0  0  0  0
   13.2612    5.8160   20.4815 H   0  0  0  0  0  0  0  0  0  0  0  0
   15.3555    4.4954   26.4933 H   0  0  0  0  0  0  0  0  0  0  0  0
   14.4609    2.8687   27.4197 H   0  0  0  0  0  0  0  0  0  0  0  0
   15.5490    7.0909   21.5000 H   0  0  0  0  0  0  0  0  0  0  0  0
   14.6239    9.5930   18.9696 H   0  0  0  0  0  0  0  0  0  0  0  0
   15.8074    6.0521   19.1004 H   0  0  0  0  0  0  0  0  0  0  0  0
   13.2873    7.4644   18.5221 H   0  0  0  0  0  0  0  0  0  0  0  0
   11.9764    3.5127   24.6878 H   0  0  0  0  0  0  0  0  0  0  0  0
   11.1119    4.0552   25.9626 H   0  0  0  0  0  0  0  0  0  0  0  0
   11.9202    5.1116   25.0153 H   0  0  0  0  0  0  0  0  0  0  0  0
    6.5846    2.2311   28.2446 H   0  0  0  0  0  0  0  0  0  0  0  0
    7.9789    2.7713   27.5883 H   0  0  0  0  0  0  0  0  0  0  0  0
    7.0941    1.6410   26.8097 H   0  0  0  0  0  0  0  0  0  0  0  0
    8.2005   -1.9687   25.2979 H   0  0  0  0  0  0  0  0  0  0  0  0
    8.4306   -2.3524   26.8684 H   0  0  0  0  0  0  0  0  0  0  0  0
    7.2379   -1.3200   26.4464 H   0  0  0  0  0  0  0  0  0  0  0  0
   13.1466    0.4160   29.5672 H   0  0  0  0  0  0  0  0  0  0  0  0
   13.4456    0.1319   27.9871 H   0  0  0  0  0  0  0  0  0  0  0  0
   14.5205    0.9737   28.8829 H   0  0  0  0  0  0  0  0  0  0  0  0
   13.4466    6.9184   23.0279 H   0  0  0  0  0  0  0  0  0  0  0  0
   14.8274    7.7532   23.2794 H   0  0  0  0  0  0  0  0  0  0  0  0
    8.5195    1.0971   29.4047 H   0  0  0  0  0  0  0  0  0  0  0  0
    7.6347   -0.0332   28.6261 H   0  0  0  0  0  0  0  0  0  0  0  0
   10.1042   -0.7125   26.1501 H   0  0  0  0  0  0  0  0  0  0  0  0
    8.9115    0.3199   25.7281 H   0  0  0  0  0  0  0  0  0  0  0  0
   15.1201    8.3698   14.8753 H   0  0  0  0  0  0  0  0  0  0  0  0
   13.6945    9.0026   14.3916 H   0  0  0  0  0  0  0  0  0  0  0  0
   13.2780    9.0135   16.8247 H   0  0  0  0  0  0  0  0  0  0  0  0
   12.7585    7.4972   16.5122 H   0  0  0  0  0  0  0  0  0  0  0  0
   11.2847    0.5800   27.1094 H   0  0  0  0  0  0  0  0  0  0  0  0
   10.2681    1.7183   26.5283 H   0  0  0  0  0  0  0  0  0  0  0  0
   13.0814    2.8274   29.0355 H   0  0  0  0  0  0  0  0  0  0  0  0
   16.7378    9.3455   19.8747 H   0  0  0  0  0  0  0  0  0  0  0  0
   13.5054    4.5940   18.6351 H   0  0  0  0  0  0  0  0  0  0  0  0
   14.4374    6.7403   13.5905 H   0  0  0  0  0  0  0  0  0  0  0  0
   10.4535   -0.5521   29.3507 H   0  0  0  0  0  0  0  0  0  0  0  0
   14.7270    5.7010   24.9460 C   0  0  0  0  0  0  0  0  0  0  0  0
   14.9500    5.8200   23.7210 C   0  0  0  0  0  0  0  0  0  0  0  0
   14.5130    6.9710   26.0340 C   0  0  2  0  0  0  0  0  0  0  0  0
   13.2560    6.8210   27.0190 C   0  0  2  0  0  0  0  0  0  0  0  0
   15.2170    2.8980   25.0260 C   0  0  1  0  0  0  0  0  0  0  0  0
   14.3660    1.8440   25.7870 C   0  0  2  0  0  0  0  0  0  0  0  0
   13.0920    5.2500   27.5770 C   0  0  2  0  0  0  0  0  0  0  0  0
   14.3940    8.5480   20.8990 C   0  0  1  0  0  0  0  0  0  0  0  0
   14.2540    5.9190   20.5420 C   0  0  1  0  0  0  0  0  0  0  0  0
   14.7280    4.3520   25.7280 C   0  0  2  0  0  0  0  0  0  0  0  0
   13.6240    2.5980   26.9440 C   0  0  1  0  0  0  0  0  0  0  0  0
   14.5510    7.1360   21.5440 C   0  0  2  0  0  0  0  0  0  0  0  0
   14.9110    8.7130   19.3480 C   0  0  2  0  0  0  0  0  0  0  0  0
   14.8080    6.0380   19.0690 C   0  0  2  0  0  0  0  0  0  0  0  0
   14.2840    7.4410   18.4440 C   0  0  2  0  0  0  0  0  0  0  0  0
   13.3020    4.0410   26.4080 C   0  0  1  0  0  0  0  0  0  0  0  0
   11.9380    4.1960   25.4170 C   0  0  0  0  0  0  0  0  0  0  0  0
    7.3870    1.9740   27.7060 C   0  0  0  0  0  0  0  0  0  0  0  0
    8.1670   -1.6240   26.2360 C   0  0  0  0  0  0  0  0  0  0  0  0
   13.5490    0.7910   28.7320 C   0  0  0  0  0  0  0  0  0  0  0  0
   14.4340    6.9300   22.8700 C   0  0  1  0  0  0  0  0  0  0  0  0
    8.2360    0.7570   28.5080 C   0  0  1  0  0  0  0  0  0  0  0  0
    9.1950   -0.3730   26.3910 C   0  0  1  0  0  0  0  0  0  0  0  0
   14.1280    8.2440   14.8780 C   0  0  2  0  0  0  0  0  0  0  0  0
   13.5380    8.1210   16.4560 C   0  0  1  0  0  0  0  0  0  0  0  0
   10.5510    1.2170   27.3460 C   0  0  1  0  0  0  0  0  0  0  0  0
   12.7980    2.1640   28.3430 C   0  0  2  0  0  0  0  0  0  0  0  0
    9.3350    0.3720   27.8180 C   0  0  1  0  0  0  0  0  0  0  0  0
   16.3410    8.5980   19.3420 O   0  0  0  0  0  0  0  0  0  0  0  0
   14.3890    4.9190   18.2980 O   0  0  0  0  0  0  0  0  0  0  0  0
   13.7680    6.9850   14.2920 O   0  0  0  0  0  0  0  0  0  0  0  0
   10.2420   -0.7520   28.3940 O   0  0  0  0  0  0  0  0  0  0  0  0
   14.6250    7.6200   17.0800 O   0  0  0  0  0  0  0  0  0  0  0  0
   11.1240    2.2280   28.3240 S   0  0  0  0  0  0  0  0  0  0  0  0
  1 52  1  0  0  0  0
  2 53  1  0  0  0  0
  3 53  1  0  0  0  0
  4 54  1  0  0  0  0
  5 54  1  0  0  0  0
  6 55  1  0  0  0  0
  7 55  1  0  0  0  0
  8 56  1  0  0  0  0
  9 56  1  0  0  0  0
 10 57  1  0  0  0  0
 11 57  1  0  0  0  0
 12 58  1  0  0  0  0
 13 58  1  0  0  0  0
 14 59  1  0  0  0  0
 15 59  1  0  0  0  0
 16 60  1  0  0  0  0
 17 61  1  0  0  0  0
 18 62  1  0  0  0  0
 19 63  1  0  0  0  0
 20 64  1  0  0  0  0
 21 65  1  0  0  0  0
 22 67  1  0  0  0  0
 23 67  1  0  0  0  0
 24 67  1  0  0  0  0
 25 68  1  0  0  0  0
 26 68  1  0  0  0  0
 27 68  1  0  0  0  0
 28 69  1  0  0  0  0
 29 69  1  0  0  0  0
 30 69  1  0  0  0  0
 31 70  1  0  0  0  0
 32 70  1  0  0  0  0
 33 70  1  0  0  0  0
 34 71  1  0  0  0  0
 35 71  1  0  0  0  0
 36 72  1  0  0  0  0
 37 72  1  0  0  0  0
 38 73  1  0  0  0  0
 39 73  1  0  0  0  0
 40 74  1  0  0  0  0
 41 74  1  0  0  0  0
 42 75  1  0  0  0  0
 43 75  1  0  0  0  0
 44 76  1  0  0  0  0
 45 76  1  0  0  0  0
 46 77  1  0  0  0  0
 47 79  1  0  0  0  0
 48 80  1  0  0  0  0
 49 81  1  0  0  0  0
 50 82  1  0  0  0  0
 51 52  2  3  0  0  0
 51 53  1  0  0  0  0
 51 60  1  0  0  0  0
 52 71  1  0  0  0  0
 53 54  1  0  0  0  0
 54 57  1  0  0  0  0
 55 56  1  0  0  0  0
 55 60  1  0  0  0  0
 56 61  1  0  0  0  0
 57 66  1  0  0  0  0
 58 62  1  0  0  0  0
 58 63  1  0  0  0  0
 59 62  1  0  0  0  0
 59 64  1  0  0  0  0
 60 66  1  0  0  0  0
 61 66  1  0  0  0  0
 61 77  1  0  0  0  0
 62 71  1  0  0  0  0
 63 65  1  0  0  0  0
 63 79  1  0  0  0  0
 64 65  1  0  0  0  0
 64 80  1  0  0  0  0
 65 83  1  0  0  0  0
 66 67  1  0  0  0  0
 68 72  1  0  0  0  0
 69 73  1  0  0  0  0
 70 77  1  0  0  0  0
 72 78  1  0  0  0  0
 73 78  1  0  0  0  0
 74 75  1  0  0  0  0
 74 81  1  0  0  0  0
 75 83  1  0  0  0  0
 76 78  1  0  0  0  0
 76 84  1  0  0  0  0
 77 84  1  0  0  0  0
 78 82  1  0  0  0  0
M  END
> <scpdb_id>
2zl9_1

$$$$
