#    Name: 33041
#    Modification time : Tue Aug  8 22:22:21 2017

@<TRIPOS>MOLECULE
33041
   45     0     3     0     0
SMALL
NO_CHARGES


@<TRIPOS>ATOM
      1 CA        -10.8720  -16.9300  -11.6910 C.3       1 GLL5        0.0000 
      2 CA        -12.3500  -17.1920  -11.9600 C.3       1 GLL5        0.0000 
      3 CA        -12.6890  -16.6730   -9.5880 C.3       1 GLL5        0.0000 
      4 CA        -11.3260  -20.1570   -9.8450 C.3       1 GLL5        0.0000 
      5 CA         -9.8680  -22.4510  -10.8670 C.3       1 GLL5        0.0000 
      6 CA         -7.5540  -22.0800   -9.4560 C.3       1 GLL5        0.0000 
      7 CA        -10.0270  -16.2480   -9.4850 C.3       1 GLL5        0.0000 
      8 CA         -5.8270  -23.0990  -10.8870 C.3       1 GLL5        0.0000 
      9 CA         -6.6930  -27.1280  -16.8550 C.3       1 GLL5        0.0000 
     10 CA        -13.2660  -16.4840  -10.9850 C.3       1 GLL5        0.0000 
     11 CA        -11.4650  -19.0100   -8.8990 C.3       1 GLL5        0.0000 
     12 CA         -9.8900  -20.0680   -9.7420 C.3       1 GLL5        0.0000 
     13 CA        -10.4830  -17.4430  -10.3220 C.3       1 GLL5        0.0000 
     14 CA         -8.6930  -14.4890  -14.0170 C.3       2 GLP5        0.0000 
     15 CA         -9.7850  -16.5210  -14.6620 C.3       2 GLP5        0.0000 
     16 CA        -13.9810  -18.6940   -5.9080 C.3       2 GLP5        0.0000 
     17 CA        -15.4800  -21.1980  -10.5070 C.3       2 GLP5        0.0000 
     18 CA        -13.4910  -23.4010   -8.7640 C.3       2 GLP5        0.0000 
     19 CA        -12.3000  -24.0860   -8.5100 C.3       2 GLP5        0.0000 
     20 CA        -13.1910  -24.4590  -12.1980 C.3       2 GLP5        0.0000 
     21 CA         -6.1430  -20.9610   -5.3810 C.3       2 GLP5        0.0000 
     22 CA         -7.7390  -26.5060   -8.7530 C.3       2 GLP5        0.0000 
     23 CA        -11.1370  -15.1040   -5.5680 C.3       2 GLP5        0.0000 
     24 CA         -7.3340  -26.2730  -20.9810 C.3       2 GLP5        0.0000 
     25 CA        -16.8390  -16.1390   -9.2710 C.3       2 GLP5        0.0000 
     26 CA        -12.6630  -20.8400   -5.7040 C.3       2 GLP5        0.0000 
     27 CA         -9.0500  -19.6830   -6.0050 C.3       2 GLP5        0.0000 
     28 CA         -8.9820  -15.8290  -13.7870 C.3       2 GLP5        0.0000 
     29 CA         -9.7825  -15.7095  -12.8540 C.3       3 GLC5        0.0000 
     30 CA        -11.0675  -16.8565  -13.3110 C.3       3 GLC5        0.0000 
     31 CA        -13.3350  -17.6835   -7.7480 C.3       3 GLC5        0.0000 
     32 CA        -13.4030  -20.6775  -10.1760 C.3       3 GLC5        0.0000 
     33 CA        -12.4085  -21.7790   -9.3045 C.3       3 GLC5        0.0000 
     34 CA        -11.0840  -23.2685   -9.6885 C.3       3 GLC5        0.0000 
     35 CA        -11.5295  -23.4550  -11.5325 C.3       3 GLC5        0.0000 
     36 CA         -6.8485  -21.5205   -7.4185 C.3       3 GLC5        0.0000 
     37 CA         -7.6465  -24.2930   -9.1045 C.3       3 GLC5        0.0000 
     38 CA        -10.5820  -15.6760   -7.5265 C.3       3 GLC5        0.0000 
     39 CA         -6.7830  -24.8025   -9.8200 C.3       3 GLC5        0.0000 
     40 CA         -7.0135  -26.7005  -18.9180 C.3       3 GLC5        0.0000 
     41 CA        -14.9082  -16.3588   -9.7788 C.3       3 GLC5        0.0000 
     42 CA        -12.0293  -20.2118   -7.5380 C.3       3 GLC5        0.0000 
     43 CA         -9.8464  -19.7544   -7.7810 C.3       3 GLC5        0.0000 
     44 CA         -9.6185  -16.3373  -11.8453 C.3       3 GLC5        0.0000 
     45 CA         -8.9610  -19.2925   -8.0564 C.3       3 GLC5        0.0000 
@<TRIPOS>BOND
@<TRIPOS>SUBSTRUCTURE
     1 GLL5        1 GROUP        1 Z    GLL  0     ROOT GLL Z 4
     2 GLP5       14 GROUP        1 Z    GLP  0     **** GLP Z 11
     3 GLC5       29 GROUP        1 Z    GLC  0     **** GLC Z 18
@<TRIPOS>SET

