@<TRIPOS>MOLECULE
3qqa_TCH_1_ligand
   79    82     1     0     0
SMALL
NO_CHARGES


@<TRIPOS>ATOM
     1 C1         -10.8720   -16.9300   -11.6910 C.3          1 TCH211   0.0000
     2 C2         -12.3500   -17.1920   -11.9600 C.3          1 TCH211   0.0000
     3 C3         -13.2660   -16.4840   -10.9850 C.3          1 TCH211   0.0000
     4 O3         -13.6550   -15.1680   -11.4720 O.3          1 TCH211   0.0000
     5 C4         -12.6890   -16.6730    -9.5880 C.3          1 TCH211   0.0000
     6 C5         -11.8010   -17.8760    -9.8390 C.3          1 TCH211   0.0000
     7 C6         -11.4650   -19.0100    -8.8990 C.3          1 TCH211   0.0000
     8 C7         -11.3260   -20.1570    -9.8450 C.3          1 TCH211   0.0000
     9 O7         -11.4370   -19.6970   -11.1960 O.3          1 TCH211   0.0000
    10 C8          -9.8900   -20.0680    -9.7420 C.3          1 TCH211   0.0000
    11 C9          -9.5340   -18.6760   -10.3030 C.3          1 TCH211   0.0000
    12 C10        -10.4830   -17.4430   -10.3220 C.3          1 TCH211   0.0000
    13 C11         -8.0320   -18.4320   -10.1930 C.3          1 TCH211   0.0000
    14 C12         -7.2110   -19.7340   -10.2820 C.3          1 TCH211   0.0000
    15 O12         -5.9140   -19.4530   -10.8510 O.3          1 TCH211   0.0000
    16 C13         -7.8950   -21.1070   -10.5650 C.3          1 TCH211   0.0000
    17 C14         -9.3960   -21.0470   -10.7270 C.3          1 TCH211   0.0000
    18 C15         -9.8680   -22.4510   -10.8670 C.3          1 TCH211   0.0000
    19 C16         -8.7370   -22.9640   -11.7790 C.3          1 TCH211   0.0000
    20 C17         -7.6900   -21.8570   -11.8710 C.3          1 TCH211   0.0000
    21 C18         -7.5540   -22.0800    -9.4560 C.3          1 TCH211   0.0000
    22 C19        -10.0270   -16.2480    -9.4850 C.3          1 TCH211   0.0000
    23 O1S         -7.4360   -29.5170   -16.1330 O.co2        1 TCH211   0.0000
    24 C20         -6.2950   -22.3690   -12.1120 C.3          1 TCH211   0.0000
    25 C21         -5.8270   -23.0990   -10.8870 C.3          1 TCH211   0.0000
    26 C22         -6.1370   -23.1940   -13.3710 C.3          1 TCH211   0.0000
    27 C23         -7.3080   -23.1240   -14.3320 C.3          1 TCH211   0.0000
    28 C24         -7.8130   -24.5080   -14.5630 C.2          1 TCH211   0.0000
    29 N24         -7.6350   -25.0890   -15.7450 N.am         1 TCH211   0.0000
    30 O24         -8.3520   -25.0590   -13.6530 O.2          1 TCH211   0.0000
    31 C25         -7.7360   -26.5420   -15.9000 C.3          1 TCH211   0.0000
    32 C26         -6.6930   -27.1280   -16.8550 C.3          1 TCH211   0.0000
    33 S26         -6.7170   -28.7650   -17.1660 S.o2         1 TCH211   0.0000
    34 O2S         -5.3390   -29.2320   -17.3160 O.co2        1 TCH211   0.0000
    35 O3S         -7.3580   -29.0870   -18.4420 O.co2        1 TCH211  -1.0000
    36 H1         -10.6990   -15.9461   -11.7350 H            1 TCH211   0.0000
    37 H2         -10.3236   -17.3963   -12.3851 H            1 TCH211   0.0000
    38 H3         -12.5157   -18.1760   -11.8950 H            1 TCH211   0.0000
    39 H4         -12.5657   -16.8780   -12.8846 H            1 TCH211   0.0000
    40 H5         -14.1102   -17.0200   -10.9894 H            1 TCH211   0.0000
    41 H6         -13.6736   -15.1747   -12.4718 H            1 TCH211   0.0000
    42 H7         -13.4014   -16.8702    -8.9145 H            1 TCH211   0.0000
    43 H8         -12.1618   -15.8764    -9.2921 H            1 TCH211   0.0000
    44 H9         -12.2161   -18.3269   -10.6292 H            1 TCH211   0.0000
    45 H10        -12.2009   -19.1678    -8.2406 H            1 TCH211   0.0000
    46 H11        -10.6108   -18.8362    -8.4089 H            1 TCH211   0.0000
    47 H12        -11.7636   -21.0232    -9.6040 H            1 TCH211   0.0000
    48 H13        -12.2101   -20.1501   -11.6399 H            1 TCH211   0.0000
    49 H14         -9.5459   -20.2250    -8.8163 H            1 TCH211   0.0000
    50 H15         -9.5715   -18.9004   -11.2768 H            1 TCH211   0.0000
    51 H16         -7.8424   -17.9934    -9.3146 H            1 TCH211   0.0000
    52 H17         -7.7510   -17.8249   -10.9363 H            1 TCH211   0.0000
    53 H18         -6.9619   -19.8537    -9.3209 H            1 TCH211   0.0000
    54 H19         -5.2429   -20.0981   -10.4857 H            1 TCH211   0.0000
    55 H20         -9.5498   -20.6251   -11.6205 H            1 TCH211   0.0000
    56 H21        -10.7646   -22.5077   -11.3063 H            1 TCH211   0.0000
    57 H22         -9.8954   -22.9311    -9.9902 H            1 TCH211   0.0000
    58 H23         -9.0978   -23.1701   -12.6886 H            1 TCH211   0.0000
    59 H24         -8.3293   -23.7889   -11.3874 H            1 TCH211   0.0000
    60 H25         -7.9381   -21.2499   -12.6259 H            1 TCH211   0.0000
    61 H26         -7.9928   -22.9600    -9.6380 H            1 TCH211   0.0000
    62 H27         -6.5626   -22.2041    -9.4146 H            1 TCH211   0.0000
    63 H28         -7.8814   -21.7185    -8.5830 H            1 TCH211   0.0000
    64 H29         -9.7636   -16.5612    -8.5726 H            1 TCH211   0.0000
    65 H30         -9.2433   -15.8113    -9.9267 H            1 TCH211   0.0000
    66 H31        -10.7758   -15.5897    -9.4082 H            1 TCH211   0.0000
    67 H32         -5.7058   -21.5676   -12.2147 H            1 TCH211   0.0000
    68 H33         -4.9003   -23.4431   -11.0377 H            1 TCH211   0.0000
    69 H34         -5.8277   -22.4744   -10.1061 H            1 TCH211   0.0000
    70 H35         -6.4412   -23.8659   -10.7010 H            1 TCH211   0.0000
    71 H36         -6.0121   -24.1492   -13.1027 H            1 TCH211   0.0000
    72 H37         -5.3210   -22.8734   -13.8520 H            1 TCH211   0.0000
    73 H38         -7.0097   -22.7246   -15.1989 H            1 TCH211   0.0000
    74 H39         -8.0346   -22.5610   -13.9381 H            1 TCH211   0.0000
    75 H40         -7.4282   -24.5236   -16.5435 H            1 TCH211   0.0000
    76 H41         -8.6460   -26.7602   -16.2525 H            1 TCH211   0.0000
    77 H42         -7.6161   -26.9652   -15.0020 H            1 TCH211   0.0000
    78 H43         -5.7934   -26.9146   -16.4741 H            1 TCH211   0.0000
    79 H44         -6.8028   -26.6608   -17.7323 H            1 TCH211   0.0000
@<TRIPOS>BOND
     1    1    2       1
     2    1   12       1
     3    2    3       1
     4    3    4       1
     5    3    5       1
     6    5    6       1
     7    6    7       1
     8    6   12       1
     9    7    8       1
    10    8    9       1
    11    8   10       1
    12   10   11       1
    13   10   17       1
    14   11   12       1
    15   11   13       1
    16   12   22       1
    17   13   14       1
    18   14   15       1
    19   14   16       1
    20   16   17       1
    21   16   20       1
    22   16   21       1
    23   17   18       1
    24   18   19       1
    25   19   20       1
    26   20   24       1
    27   23   33      ar
    28   24   25       1
    29   24   26       1
    30   26   27       1
    31   27   28       1
    32   28   29      am
    33   28   30       2
    34   29   31       1
    35   31   32       1
    36   32   33       1
    37   33   34      ar
    38   33   35      ar
    39    1   36       1
    40    1   37       1
    41    2   38       1
    42    2   39       1
    43    3   40       1
    44    4   41       1
    45    5   42       1
    46    5   43       1
    47    6   44       1
    48    7   45       1
    49    7   46       1
    50    8   47       1
    51    9   48       1
    52   10   49       1
    53   11   50       1
    54   13   51       1
    55   13   52       1
    56   14   53       1
    57   15   54       1
    58   17   55       1
    59   18   56       1
    60   18   57       1
    61   19   58       1
    62   19   59       1
    63   20   60       1
    64   21   61       1
    65   21   62       1
    66   21   63       1
    67   22   64       1
    68   22   65       1
    69   22   66       1
    70   32   79       1
    71   24   67       1
    72   25   68       1
    73   25   69       1
    74   25   70       1
    75   26   71       1
    76   26   72       1
    77   27   73       1
    78   27   74       1
    79   29   75       1
    80   31   76       1
    81   31   77       1
    82   32   78       1
@<TRIPOS>SUBSTRUCTURE
     1 TCH211      1 GROUP             4 A     TCH     0 **** TCH A 211
