3qqa_TCH_1_ligand
  -OEChem-08111718373D

 79 82  0     1  0  0  0  0  0999 V2000
  -10.7646  -22.5077  -11.3063 H   0  0  0  0  0  0  0  0  0  0  0  0
   -9.8954  -22.9311   -9.9902 H   0  0  0  0  0  0  0  0  0  0  0  0
   -9.0978  -23.1701  -12.6886 H   0  0  0  0  0  0  0  0  0  0  0  0
   -8.3293  -23.7889  -11.3874 H   0  0  0  0  0  0  0  0  0  0  0  0
  -12.5157  -18.1760  -11.8950 H   0  0  0  0  0  0  0  0  0  0  0  0
  -12.5657  -16.8780  -12.8846 H   0  0  0  0  0  0  0  0  0  0  0  0
  -10.6990  -15.9461  -11.7350 H   0  0  0  0  0  0  0  0  0  0  0  0
  -10.3236  -17.3963  -12.3851 H   0  0  0  0  0  0  0  0  0  0  0  0
  -13.4014  -16.8702   -8.9145 H   0  0  0  0  0  0  0  0  0  0  0  0
  -12.1618  -15.8764   -9.2921 H   0  0  0  0  0  0  0  0  0  0  0  0
  -12.2009  -19.1678   -8.2406 H   0  0  0  0  0  0  0  0  0  0  0  0
  -10.6108  -18.8362   -8.4089 H   0  0  0  0  0  0  0  0  0  0  0  0
   -7.8424  -17.9934   -9.3146 H   0  0  0  0  0  0  0  0  0  0  0  0
   -7.7510  -17.8249  -10.9363 H   0  0  0  0  0  0  0  0  0  0  0  0
   -9.5498  -20.6251  -11.6205 H   0  0  0  0  0  0  0  0  0  0  0  0
  -12.2161  -18.3269  -10.6292 H   0  0  0  0  0  0  0  0  0  0  0  0
   -9.5715  -18.9004  -11.2768 H   0  0  0  0  0  0  0  0  0  0  0  0
   -9.5459  -20.2250   -8.8163 H   0  0  0  0  0  0  0  0  0  0  0  0
   -7.9381  -21.2499  -12.6259 H   0  0  0  0  0  0  0  0  0  0  0  0
  -14.1102  -17.0200  -10.9894 H   0  0  0  0  0  0  0  0  0  0  0  0
  -11.7636  -21.0232   -9.6040 H   0  0  0  0  0  0  0  0  0  0  0  0
   -6.9619  -19.8537   -9.3209 H   0  0  0  0  0  0  0  0  0  0  0  0
   -9.7636  -16.5612   -8.5726 H   0  0  0  0  0  0  0  0  0  0  0  0
   -9.2433  -15.8113   -9.9267 H   0  0  0  0  0  0  0  0  0  0  0  0
  -10.7758  -15.5897   -9.4082 H   0  0  0  0  0  0  0  0  0  0  0  0
   -7.9928  -22.9600   -9.6380 H   0  0  0  0  0  0  0  0  0  0  0  0
   -6.5626  -22.2041   -9.4146 H   0  0  0  0  0  0  0  0  0  0  0  0
   -7.8814  -21.7185   -8.5830 H   0  0  0  0  0  0  0  0  0  0  0  0
   -4.9003  -23.4431  -11.0377 H   0  0  0  0  0  0  0  0  0  0  0  0
   -5.8277  -22.4744  -10.1061 H   0  0  0  0  0  0  0  0  0  0  0  0
   -6.4412  -23.8659  -10.7010 H   0  0  0  0  0  0  0  0  0  0  0  0
   -7.0097  -22.7246  -15.1989 H   0  0  0  0  0  0  0  0  0  0  0  0
   -8.0346  -22.5610  -13.9381 H   0  0  0  0  0  0  0  0  0  0  0  0
   -6.0121  -24.1492  -13.1027 H   0  0  0  0  0  0  0  0  0  0  0  0
   -5.3210  -22.8734  -13.8520 H   0  0  0  0  0  0  0  0  0  0  0  0
   -8.6460  -26.7602  -16.2525 H   0  0  0  0  0  0  0  0  0  0  0  0
   -7.6161  -26.9652  -15.0020 H   0  0  0  0  0  0  0  0  0  0  0  0
   -5.7934  -26.9146  -16.4741 H   0  0  0  0  0  0  0  0  0  0  0  0
   -6.8028  -26.6608  -17.7323 H   0  0  0  0  0  0  0  0  0  0  0  0
   -5.7058  -21.5676  -12.2147 H   0  0  0  0  0  0  0  0  0  0  0  0
   -7.4282  -24.5236  -16.5435 H   0  0  0  0  0  0  0  0  0  0  0  0
  -13.6736  -15.1747  -12.4718 H   0  0  0  0  0  0  0  0  0  0  0  0
  -12.2101  -20.1501  -11.6399 H   0  0  0  0  0  0  0  0  0  0  0  0
   -5.2429  -20.0981  -10.4857 H   0  0  0  0  0  0  0  0  0  0  0  0
   -7.8130  -24.5080  -14.5630 C   0  0  0  0  0  0  0  0  0  0  0  0
   -9.8680  -22.4510  -10.8670 C   0  0  1  0  0  0  0  0  0  0  0  0
   -8.7370  -22.9640  -11.7790 C   0  0  2  0  0  0  0  0  0  0  0  0
  -12.3500  -17.1920  -11.9600 C   0  0  2  0  0  0  0  0  0  0  0  0
  -10.8720  -16.9300  -11.6910 C   0  0  2  0  0  0  0  0  0  0  0  0
  -12.6890  -16.6730   -9.5880 C   0  0  1  0  0  0  0  0  0  0  0  0
  -11.4650  -19.0100   -8.8990 C   0  0  2  0  0  0  0  0  0  0  0  0
   -8.0320  -18.4320  -10.1930 C   0  0  2  0  0  0  0  0  0  0  0  0
   -9.3960  -21.0470  -10.7270 C   0  0  1  0  0  0  0  0  0  0  0  0
  -11.8010  -17.8760   -9.8390 C   0  0  2  0  0  0  0  0  0  0  0  0
   -9.5340  -18.6760  -10.3030 C   0  0  1  0  0  0  0  0  0  0  0  0
   -9.8900  -20.0680   -9.7420 C   0  0  1  0  0  0  0  0  0  0  0  0
   -7.6900  -21.8570  -11.8710 C   0  0  1  0  0  0  0  0  0  0  0  0
  -13.2660  -16.4840  -10.9850 C   0  0  1  0  0  0  0  0  0  0  0  0
  -11.3260  -20.1570   -9.8450 C   0  0  2  0  0  0  0  0  0  0  0  0
   -7.2110  -19.7340  -10.2820 C   0  0  1  0  0  0  0  0  0  0  0  0
  -10.4830  -17.4430  -10.3220 C   0  0  1  0  0  0  0  0  0  0  0  0
   -7.8950  -21.1070  -10.5650 C   0  0  1  0  0  0  0  0  0  0  0  0
  -10.0270  -16.2480   -9.4850 C   0  0  0  0  0  0  0  0  0  0  0  0
   -7.5540  -22.0800   -9.4560 C   0  0  0  0  0  0  0  0  0  0  0  0
   -5.8270  -23.0990  -10.8870 C   0  0  0  0  0  0  0  0  0  0  0  0
   -7.3080  -23.1240  -14.3320 C   0  0  1  0  0  0  0  0  0  0  0  0
   -6.1370  -23.1940  -13.3710 C   0  0  1  0  0  0  0  0  0  0  0  0
   -7.7360  -26.5420  -15.9000 C   0  0  1  0  0  0  0  0  0  0  0  0
   -6.6930  -27.1280  -16.8550 C   0  0  2  0  0  0  0  0  0  0  0  0
   -6.2950  -22.3690  -12.1120 C   0  0  1  0  0  0  0  0  0  0  0  0
   -7.6350  -25.0890  -15.7450 N   0  0  0  0  0  0  0  0  0  0  0  0
   -7.3580  -29.0870  -18.4420 O   0  5  0  0  0  0  0  0  0  0  0  0
   -8.3520  -25.0590  -13.6530 O   0  0  0  0  0  0  0  0  0  0  0  0
   -7.4360  -29.5170  -16.1330 O   0  0  0  0  0  0  0  0  0  0  0  0
   -5.3390  -29.2320  -17.3160 O   0  0  0  0  0  0  0  0  0  0  0  0
  -13.6550  -15.1680  -11.4720 O   0  0  0  0  0  0  0  0  0  0  0  0
  -11.4370  -19.6970  -11.1960 O   0  0  0  0  0  0  0  0  0  0  0  0
   -5.9140  -19.4530  -10.8510 O   0  0  0  0  0  0  0  0  0  0  0  0
   -6.7170  -28.7650  -17.1660 S   0  0  2  0  0  0  0  0  0  0  0  0
  1 46  1  0  0  0  0
  2 46  1  0  0  0  0
  3 47  1  0  0  0  0
  4 47  1  0  0  0  0
  5 48  1  0  0  0  0
  6 48  1  0  0  0  0
  7 49  1  0  0  0  0
  8 49  1  0  0  0  0
  9 50  1  0  0  0  0
 10 50  1  0  0  0  0
 11 51  1  0  0  0  0
 12 51  1  0  0  0  0
 13 52  1  0  0  0  0
 14 52  1  0  0  0  0
 15 53  1  0  0  0  0
 16 54  1  0  0  0  0
 17 55  1  0  0  0  0
 18 56  1  0  0  0  0
 19 57  1  0  0  0  0
 20 58  1  0  0  0  0
 21 59  1  0  0  0  0
 22 60  1  0  0  0  0
 23 63  1  0  0  0  0
 24 63  1  0  0  0  0
 25 63  1  0  0  0  0
 26 64  1  0  0  0  0
 27 64  1  0  0  0  0
 28 64  1  0  0  0  0
 29 65  1  0  0  0  0
 30 65  1  0  0  0  0
 31 65  1  0  0  0  0
 32 66  1  0  0  0  0
 33 66  1  0  0  0  0
 34 67  1  0  0  0  0
 35 67  1  0  0  0  0
 36 68  1  0  0  0  0
 37 68  1  0  0  0  0
 38 69  1  0  0  0  0
 39 69  1  0  0  0  0
 40 70  1  0  0  0  0
 41 71  1  0  0  0  0
 42 76  1  0  0  0  0
 43 77  1  0  0  0  0
 44 78  1  0  0  0  0
 45 66  1  0  0  0  0
 45 71  1  0  0  0  0
 45 73  2  0  0  0  0
 46 47  1  0  0  0  0
 46 53  1  0  0  0  0
 47 57  1  0  0  0  0
 48 49  1  0  0  0  0
 48 58  1  0  0  0  0
 49 61  1  0  0  0  0
 50 54  1  0  0  0  0
 50 58  1  0  0  0  0
 51 54  1  0  0  0  0
 51 59  1  0  0  0  0
 52 55  1  0  0  0  0
 52 60  1  0  0  0  0
 53 56  1  0  0  0  0
 53 62  1  0  0  0  0
 54 61  1  0  0  0  0
 55 56  1  0  0  0  0
 55 61  1  0  0  0  0
 56 59  1  0  0  0  0
 57 62  1  0  0  0  0
 57 70  1  0  0  0  0
 58 76  1  0  0  0  0
 59 77  1  0  0  0  0
 60 62  1  0  0  0  0
 60 78  1  0  0  0  0
 61 63  1  0  0  0  0
 62 64  1  0  0  0  0
 65 70  1  0  0  0  0
 66 67  1  0  0  0  0
 67 70  1  0  0  0  0
 68 69  1  0  0  0  0
 68 71  1  0  0  0  0
 69 79  1  0  0  0  0
 72 79  1  0  0  0  0
 74 79  2  0  0  0  0
 75 79  2  0  0  0  0
M  CHG  1  72  -1
M  END
> <scpdb_id>
3qqa_1

$$$$
