#    Name: 26161
#    Modification time : Wed Aug  9 00:20:27 2017

@<TRIPOS>MOLECULE
26161
  108     0     6     0     0
SMALL
NO_CHARGES


@<TRIPOS>ATOM
      1 N          38.6440   -9.2090   34.6390 N.am      1 SEL1        0.0000 
      2 N          38.5740  -10.4020   31.8750 N.am      1 SEL1        0.0000 
      3 N          36.5950   -9.4200   32.0750 N.am      1 SEL1        0.0000 
      4 CA         34.5440   -5.8380   44.0460 C.3       2 GLL5        0.0000 
      5 CA         34.7020   -5.2780   42.7880 C.3       2 GLL5        0.0000 
      6 CA         32.2850   -4.9050   44.2380 C.3       2 GLL5        0.0000 
      7 CA         32.4410   -4.3300   42.9850 C.3       2 GLL5        0.0000 
      8 CA         33.6410   -4.5160   42.2670 C.3       2 GLL5        0.0000 
      9 CA         35.2060   -3.4710   38.8870 C.3       2 GLL5        0.0000 
     10 CA         35.5370   -3.5540   34.5440 C.3       2 GLL5        0.0000 
     11 CA         37.4320   -2.8570   40.5130 C.3       2 GLL5        0.0000 
     12 CA         40.0690   -2.5700   39.0790 C.3       2 GLL5        0.0000 
     13 CA         41.0530   -3.1080   38.0380 C.3       2 GLL5        0.0000 
     14 CA         40.2890   -3.6540   36.8220 C.3       2 GLL5        0.0000 
     15 CA         41.3180   -5.9980   37.4080 C.3       2 GLL5        0.0000 
     16 CA         40.6600   -7.3280   37.8340 C.3       2 GLL5        0.0000 
     17 CA         40.1720   -8.1230   36.6340 C.3       2 GLL5        0.0000 
     18 CA         38.8970   -5.0230   34.6640 C.3       2 GLL5        0.0000 
     19 CA         38.1230   -5.6190   33.6840 C.3       2 GLL5        0.0000 
     20 CA         38.0450  -11.5480   34.4480 C.3       2 GLL5        0.0000 
     21 CA         36.3070   -9.7640   34.6900 C.3       2 GLL5        0.0000 
     22 CA         32.9560   -7.3170   48.5270 C.3       2 GLL5        0.0000 
     23 CA         35.5060   -3.9630   36.0070 C.3       2 GLL5        0.0000 
     24 CA         36.1900   -3.1820   41.0890 C.3       2 GLL5        0.0000 
     25 CA         38.0250   -7.0100   33.6440 C.3       2 GLL5        0.0000 
     26 CA         36.5310   -3.1360   36.7610 C.3       2 GLL5        0.0000 
     27 CA         37.5560   -2.8550   39.1150 C.3       2 GLL5        0.0000 
     28 N          41.1710   -9.3030   32.4630 N.am      3 SEP1        0.0000 
     29 N          39.2600   -9.8990   29.3150 N.am      3 SEP1        0.0000 
     30 N          34.0320   -8.2630   33.0240 N.am      3 SEP1        0.0000 
     31 N          36.7490   -8.1220   29.4090 N.am      3 SEP1        0.0000 
     32 CA         37.3200   -4.3020   46.9680 C.3       4 GLP5        0.0000 
     33 CA         37.4060   -6.7190   39.8390 C.3       4 GLP5        0.0000 
     34 CA         28.5530   -6.9650   43.3160 C.3       4 GLP5        0.0000 
     35 CA         33.7590   -1.2320   45.5310 C.3       4 GLP5        0.0000 
     36 CA         33.5530   -0.3260   43.0950 C.3       4 GLP5        0.0000 
     37 CA         34.9460   -0.5720   42.5690 C.3       4 GLP5        0.0000 
     38 CA         31.9180   -3.1240   36.8360 C.3       4 GLP5        0.0000 
     39 CA         36.1830   -2.7690   31.3870 C.3       4 GLP5        0.0000 
     40 CA         38.9130    0.7950   41.7130 C.3       4 GLP5        0.0000 
     41 CA         41.5470   -1.6370   43.1490 C.3       4 GLP5        0.0000 
     42 CA         43.7430   -1.0160   35.2050 C.3       4 GLP5        0.0000 
     43 CA         43.2160   -2.1440   34.2730 C.3       4 GLP5        0.0000 
     44 CA         42.5070   -5.0740   40.7740 C.3       4 GLP5        0.0000 
     45 CA         40.2040  -11.3800   38.6700 C.3       4 GLP5        0.0000 
     46 CA         41.8550   -6.6150   41.4720 C.3       4 GLP5        0.0000 
     47 CA         40.5750  -11.6590   37.3500 C.3       4 GLP5        0.0000 
     48 CA         43.6810   -9.5570   35.7750 C.3       4 GLP5        0.0000 
     49 CA         39.3200   -0.8240   35.1800 C.3       4 GLP5        0.0000 
     50 CA         40.1370  -12.8340   36.7290 C.3       4 GLP5        0.0000 
     51 CA         34.7730  -12.3650   36.6850 C.3       4 GLP5        0.0000 
     52 CA         37.4460  -14.9080   32.4930 C.3       4 GLP5        0.0000 
     53 CA         41.7940  -13.2750   33.1730 C.3       4 GLP5        0.0000 
     54 CA         36.5350   -7.6440   38.6040 C.3       4 GLP5        0.0000 
     55 CA         33.9840   -6.8730   33.0370 C.3       4 GLP5        0.0000 
     56 CA         33.5020  -11.8040   32.6830 C.3       4 GLP5        0.0000 
     57 CA         31.5910   -7.5800   51.5060 C.3       4 GLP5        0.0000 
     58 CA         41.4930    1.2450   37.5130 C.3       4 GLP5        0.0000 
     59 CA         44.3130   -8.1430   37.7340 C.3       4 GLP5        0.0000 
     60 CA         36.2200   -6.2890   49.7610 C.3       4 GLP5        0.0000 
     61 CA         37.3480    0.4880   36.1410 C.3       4 GLP5        0.0000 
     62 N          39.9075   -9.2560   33.5510 N.am      5 SEC1        0.0000 
     63 N          38.9170  -10.1505   30.5950 N.am      5 SEC1        0.0000 
     64 N          39.8725   -9.8525   32.1690 N.am      5 SEC1        0.0000 
     65 N          35.3135   -8.8415   32.5495 N.am      5 SEC1        0.0000 
     66 N          36.6720   -8.7710   30.7420 N.am      5 SEC1        0.0000 
     67 CA         35.9320   -5.0700   45.5070 C.3       6 GLC5        0.0000 
     68 CA         36.0540   -5.9985   41.3135 C.3       6 GLC5        0.0000 
     69 CA         30.4190   -5.9350   43.7770 C.3       6 GLC5        0.0000 
     70 CA         33.0220   -3.0685   44.8845 C.3       6 GLC5        0.0000 
     71 CA         32.9970   -2.3280   43.0400 C.3       6 GLC5        0.0000 
     72 CA         34.2935   -2.5440   42.4180 C.3       6 GLC5        0.0000 
     73 CA         33.5620   -3.2975   37.8615 C.3       6 GLC5        0.0000 
     74 CA         35.8600   -3.1615   32.9655 C.3       6 GLC5        0.0000 
     75 CA         38.1725   -1.0310   41.1130 C.3       6 GLC5        0.0000 
     76 CA         39.4910   -0.8875   40.3960 C.3       6 GLC5        0.0000 
     77 CA         40.8080   -2.1035   41.1140 C.3       6 GLC5        0.0000 
     78 CA         42.3980   -2.0620   36.6215 C.3       6 GLC5        0.0000 
     79 CA         41.7525   -2.8990   35.5475 C.3       6 GLC5        0.0000 
     80 CA         41.9125   -5.5360   39.0910 C.3       6 GLC5        0.0000 
     81 CA         40.4320   -9.3540   38.2520 C.3       6 GLC5        0.0000 
     82 CA         39.0330   -7.0235   38.8365 C.3       6 GLC5        0.0000 
     83 CA         41.2575   -6.9715   39.6530 C.3       6 GLC5        0.0000 
     84 CA         40.3735   -9.8910   36.9920 C.3       6 GLC5        0.0000 
     85 CA         41.9265   -8.8400   36.2045 C.3       6 GLC5        0.0000 
     86 CA         39.1085   -2.9235   34.9220 C.3       6 GLC5        0.0000 
     87 CA         37.1530   -4.1940   32.5355 C.3       6 GLC5        0.0000 
     88 CA         39.0910  -12.1910   35.5885 C.3       6 GLC5        0.0000 
     89 CA         36.4090  -11.9565   35.5665 C.3       6 GLC5        0.0000 
     90 CA         37.7455  -13.2280   33.4705 C.3       6 GLC5        0.0000 
     91 CA         39.9195  -12.4115   33.8105 C.3       6 GLC5        0.0000 
     92 CA         36.4210   -8.7040   36.6470 C.3       6 GLC5        0.0000 
     93 CA         35.5400  -11.0645   35.6875 C.3       6 GLC5        0.0000 
     94 CA         35.1455   -8.3185   33.8635 C.3       6 GLC5        0.0000 
     95 CA         34.9045  -10.7840   33.6865 C.3       6 GLC5        0.0000 
     96 CA         32.3299   -7.4813   49.7246 C.3       6 GLC5        0.0000 
     97 CA         33.7198   -3.4413   36.0557 C.3       6 GLC5        0.0000 
     98 CA         34.7528   -5.3157   34.1562 C.3       6 GLC5        0.0000 
     99 CA         35.7391   -1.8335   41.5841 C.3       6 GLC5        0.0000 
    100 CA         41.0270   -0.7970   38.0357 C.3       6 GLC5        0.0000 
    101 CA         41.5340   -3.9565   39.6663 C.3       6 GLC5        0.0000 
    102 CA         39.8725   -2.0353   36.4351 C.3       6 GLC5        0.0000 
    103 CA         42.6510   -7.4030   37.6775 C.3       6 GLC5        0.0000 
    104 CA         38.1747   -7.6567   37.3623 C.3       6 GLC5        0.0000 
    105 CA         36.0290   -6.5938   33.3505 C.3       6 GLC5        0.0000 
    106 CA         34.6134   -6.6993   48.9093 C.3       6 GLC5        0.0000 
    107 CA         37.0444   -1.2949   37.1285 C.3       6 GLC5        0.0000 
    108 CA         36.8687   -4.9426   39.6803 C.3       6 GLC5        0.0000 
@<TRIPOS>BOND
@<TRIPOS>SUBSTRUCTURE
     1 SEL1        1 GROUP        1 Z    SEL  0     ROOT SEL Z 0
     2 GLL5        4 GROUP        1 Z    GLL  0     **** GLL Z 4
     3 SEP1       28 GROUP        1 Z    SEP  0     **** SEP Z 7
     4 GLP5       32 GROUP        1 Z    GLP  0     **** GLP Z 11
     5 SEC1       62 GROUP        1 Z    SEC  0     **** SEC Z 14
     6 GLC5       67 GROUP        1 Z    GLC  0     **** GLC Z 18
@<TRIPOS>SET

