3gbk_2PQ_1_ligand
  -OEChem-08111718373D

 84 88  0     1  0  0  0  0  0999 V2000
   32.8575   -7.7255   49.4344 H   0  0  0  0  0  0  0  0  0  0  0  0
   32.5563   -5.3673   49.1578 H   0  0  0  0  0  0  0  0  0  0  0  0
   33.4050   -9.1154   47.5744 H   0  0  0  0  0  0  0  0  0  0  0  0
   37.6391   -5.0587   33.0117 H   0  0  0  0  0  0  0  0  0  0  0  0
   32.7896   -4.4127   46.9707 H   0  0  0  0  0  0  0  0  0  0  0  0
   33.6159   -8.1716   45.3795 H   0  0  0  0  0  0  0  0  0  0  0  0
   35.2862   -6.3736   44.4488 H   0  0  0  0  0  0  0  0  0  0  0  0
   31.4386   -4.7869   44.7573 H   0  0  0  0  0  0  0  0  0  0  0  0
   35.5448   -5.4117   42.2667 H   0  0  0  0  0  0  0  0  0  0  0  0
   31.7023   -3.7834   42.5906 H   0  0  0  0  0  0  0  0  0  0  0  0
   36.0973   -3.1989   42.0846 H   0  0  0  0  0  0  0  0  0  0  0  0
   38.9736   -4.0264   34.6955 H   0  0  0  0  0  0  0  0  0  0  0  0
   37.4879   -7.4446   32.9211 H   0  0  0  0  0  0  0  0  0  0  0  0
   38.2155   -2.6306   41.0917 H   0  0  0  0  0  0  0  0  0  0  0  0
   34.4167   -3.6846   38.3113 H   0  0  0  0  0  0  0  0  0  0  0  0
   39.5331   -8.8255   36.9476 H   0  0  0  0  0  0  0  0  0  0  0  0
   40.9561   -8.5589   36.1922 H   0  0  0  0  0  0  0  0  0  0  0  0
   39.8814   -7.1285   38.4290 H   0  0  0  0  0  0  0  0  0  0  0  0
   41.3304   -7.8756   38.3347 H   0  0  0  0  0  0  0  0  0  0  0  0
   41.5924   -5.4923   38.2259 H   0  0  0  0  0  0  0  0  0  0  0  0
   42.1253   -6.1960   36.8520 H   0  0  0  0  0  0  0  0  0  0  0  0
   34.8657   -4.0913   34.0334 H   0  0  0  0  0  0  0  0  0  0  0  0
   35.3158   -2.5820   34.4649 H   0  0  0  0  0  0  0  0  0  0  0  0
   36.4499   -3.7196   34.1709 H   0  0  0  0  0  0  0  0  0  0  0  0
   37.3646  -12.1736   34.0663 H   0  0  0  0  0  0  0  0  0  0  0  0
   38.9448  -11.7616   34.0675 H   0  0  0  0  0  0  0  0  0  0  0  0
   38.0708  -11.6501   35.4424 H   0  0  0  0  0  0  0  0  0  0  0  0
   35.6160  -10.3802   34.3120 H   0  0  0  0  0  0  0  0  0  0  0  0
   36.3447   -9.8745   35.6832 H   0  0  0  0  0  0  0  0  0  0  0  0
   36.0675   -8.8187   34.4687 H   0  0  0  0  0  0  0  0  0  0  0  0
   37.4382   -3.4710   36.5065 H   0  0  0  0  0  0  0  0  0  0  0  0
   36.4315   -2.1859   36.4655 H   0  0  0  0  0  0  0  0  0  0  0  0
   34.5950   -3.7967   36.3844 H   0  0  0  0  0  0  0  0  0  0  0  0
   35.7291   -4.9342   36.0904 H   0  0  0  0  0  0  0  0  0  0  0  0
   41.5959   -3.8427   38.4447 H   0  0  0  0  0  0  0  0  0  0  0  0
   41.6594   -2.3694   37.7433 H   0  0  0  0  0  0  0  0  0  0  0  0
   40.6553   -3.2101   36.0042 H   0  0  0  0  0  0  0  0  0  0  0  0
   39.3251   -3.4106   36.9300 H   0  0  0  0  0  0  0  0  0  0  0  0
   40.0634   -3.1695   39.8793 H   0  0  0  0  0  0  0  0  0  0  0  0
   40.3406   -1.6480   39.3551 H   0  0  0  0  0  0  0  0  0  0  0  0
   32.9560   -7.3170   48.5270 C   0  0  0  0  0  0  0  0  0  0  0  0
   32.7770   -5.9450   48.3720 C   0  0  0  0  0  0  0  0  0  0  0  0
   33.2710   -8.1340   47.4370 C   0  0  0  0  0  0  0  0  0  0  0  0
   38.1230   -5.6190   33.6840 C   0  0  0  0  0  0  0  0  0  0  0  0
   32.9110   -5.3960   47.1060 C   0  0  0  0  0  0  0  0  0  0  0  0
   33.3990   -7.5920   46.1650 C   0  0  0  0  0  0  0  0  0  0  0  0
   34.5440   -5.8380   44.0460 C   0  0  0  0  0  0  0  0  0  0  0  0
   32.2850   -4.9050   44.2380 C   0  0  0  0  0  0  0  0  0  0  0  0
   34.7020   -5.2780   42.7880 C   0  0  0  0  0  0  0  0  0  0  0  0
   32.4410   -4.3300   42.9850 C   0  0  0  0  0  0  0  0  0  0  0  0
   36.1900   -3.1820   41.0890 C   0  0  0  0  0  0  0  0  0  0  0  0
   38.8970   -5.0230   34.6640 C   0  0  0  0  0  0  0  0  0  0  0  0
   38.0250   -7.0100   33.6440 C   0  0  0  0  0  0  0  0  0  0  0  0
   37.4320   -2.8570   40.5130 C   0  0  0  0  0  0  0  0  0  0  0  0
   35.2060   -3.4710   38.8870 C   0  0  0  0  0  0  0  0  0  0  0  0
   33.2180   -6.2250   46.0130 C   0  0  0  0  0  0  0  0  0  0  0  0
   33.3520   -5.6580   44.7550 C   0  0  0  0  0  0  0  0  0  0  0  0
   33.6410   -4.5160   42.2670 C   0  0  0  0  0  0  0  0  0  0  0  0
   35.0750   -3.4840   40.2820 C   0  0  0  0  0  0  0  0  0  0  0  0
   39.4570   -7.2160   35.6070 C   0  0  0  0  0  0  0  0  0  0  0  0
   36.4380   -3.1600   38.2940 C   0  0  0  0  0  0  0  0  0  0  0  0
   39.5770   -5.8030   35.6160 C   0  0  0  0  0  0  0  0  0  0  0  0
   38.6740   -7.8170   34.6110 C   0  0  0  0  0  0  0  0  0  0  0  0
   37.5560   -2.8550   39.1150 C   0  0  0  0  0  0  0  0  0  0  0  0
   33.7310   -3.8710   40.8940 C   0  0  0  0  0  0  0  0  0  0  0  0
   37.6120   -9.9710   32.5500 C   0  0  0  0  0  0  0  0  0  0  0  0
   40.1720   -8.1230   36.6340 C   0  0  1  0  0  0  0  0  0  0  0  0
   40.6600   -7.3280   37.8340 C   0  0  1  0  0  0  0  0  0  0  0  0
   41.3180   -5.9980   37.4080 C   0  0  1  0  0  0  0  0  0  0  0  0
   35.5370   -3.5540   34.5440 C   0  0  0  0  0  0  0  0  0  0  0  0
   38.0450  -11.5480   34.4480 C   0  0  0  0  0  0  0  0  0  0  0  0
   36.3070   -9.7640   34.6900 C   0  0  0  0  0  0  0  0  0  0  0  0
   36.5310   -3.1360   36.7610 C   0  0  2  0  0  0  0  0  0  0  0  0
   35.5060   -3.9630   36.0070 C   0  0  1  0  0  0  0  0  0  0  0  0
   41.0530   -3.1080   38.0380 C   0  0  1  0  0  0  0  0  0  0  0  0
   40.2890   -3.6540   36.8220 C   0  0  2  0  0  0  0  0  0  0  0  0
   40.0690   -2.5700   39.0790 C   0  0  1  0  0  0  0  0  0  0  0  0
   37.6670  -10.0970   34.0900 C   0  0  2  0  0  0  0  0  0  0  0  0
   40.3710   -5.1630   36.6130 N   0  0  3  0  0  0  0  0  0  0  0  0
   36.5950   -9.4200   32.0750 O   0  5  0  0  0  0  0  0  0  0  0  0
   32.6850   -3.7050   40.2850 O   0  0  0  0  0  0  0  0  0  0  0  0
   38.5740  -10.4020   31.8750 O   0  0  0  0  0  0  0  0  0  0  0  0
   38.7350   -2.5330   38.4810 O   0  0  0  0  0  0  0  0  0  0  0  0
   38.6440   -9.2090   34.6390 O   0  0  0  0  0  0  0  0  0  0  0  0
  1 41  1  0  0  0  0
  2 42  1  0  0  0  0
  3 43  1  0  0  0  0
  4 44  1  0  0  0  0
  5 45  1  0  0  0  0
  6 46  1  0  0  0  0
  7 47  1  0  0  0  0
  8 48  1  0  0  0  0
  9 49  1  0  0  0  0
 10 50  1  0  0  0  0
 11 51  1  0  0  0  0
 12 52  1  0  0  0  0
 13 53  1  0  0  0  0
 14 54  1  0  0  0  0
 15 55  1  0  0  0  0
 16 67  1  0  0  0  0
 17 67  1  0  0  0  0
 18 68  1  0  0  0  0
 19 68  1  0  0  0  0
 20 69  1  0  0  0  0
 21 69  1  0  0  0  0
 22 70  1  0  0  0  0
 23 70  1  0  0  0  0
 24 70  1  0  0  0  0
 25 71  1  0  0  0  0
 26 71  1  0  0  0  0
 27 71  1  0  0  0  0
 28 72  1  0  0  0  0
 29 72  1  0  0  0  0
 30 72  1  0  0  0  0
 31 73  1  0  0  0  0
 32 73  1  0  0  0  0
 33 74  1  0  0  0  0
 34 74  1  0  0  0  0
 35 75  1  0  0  0  0
 36 75  1  0  0  0  0
 37 76  1  0  0  0  0
 38 76  1  0  0  0  0
 39 77  1  0  0  0  0
 40 77  1  0  0  0  0
 41 42  1  0  0  0  0
 41 43  2  0  0  0  0
 42 45  2  0  0  0  0
 43 46  1  0  0  0  0
 44 52  2  0  0  0  0
 44 53  1  0  0  0  0
 45 56  1  0  0  0  0
 46 56  2  0  0  0  0
 47 49  1  0  0  0  0
 47 57  2  0  0  0  0
 48 50  2  0  0  0  0
 48 57  1  0  0  0  0
 49 58  2  0  0  0  0
 50 58  1  0  0  0  0
 51 54  2  0  0  0  0
 51 59  1  0  0  0  0
 52 62  1  0  0  0  0
 53 63  2  0  0  0  0
 54 64  1  0  0  0  0
 55 59  2  0  0  0  0
 55 61  1  0  0  0  0
 56 57  1  0  0  0  0
 58 65  1  0  0  0  0
 59 65  1  0  0  0  0
 60 62  2  0  0  0  0
 60 63  1  0  0  0  0
 60 67  1  0  0  0  0
 61 64  2  0  0  0  0
 61 73  1  0  0  0  0
 62 79  1  0  0  0  0
 63 84  1  0  0  0  0
 64 83  1  0  0  0  0
 65 81  2  0  0  0  0
 66 78  1  0  0  0  0
 66 80  1  0  0  0  0
 66 82  2  0  0  0  0
 67 68  1  0  0  0  0
 68 69  1  0  0  0  0
 69 79  1  0  0  0  0
 70 74  1  0  0  0  0
 71 78  1  0  0  0  0
 72 78  1  0  0  0  0
 73 74  1  0  0  0  0
 75 76  1  0  0  0  0
 75 77  1  0  0  0  0
 76 79  1  0  0  0  0
 77 83  1  0  0  0  0
 78 84  1  0  0  0  0
M  CHG  1  80  -1
M  END
> <scpdb_id>
3gbk_1

$$$$
