#    Name: 36414
#    Modification time : Tue Aug  8 20:01:10 2017

@<TRIPOS>MOLECULE
36414
   38     0     6     0     0
SMALL
NO_CHARGES


@<TRIPOS>ATOM
      1 N         -15.4670    2.7690   31.9840 N.am      1 SEL1        0.0000 
      2 CA        -16.9490    4.3200   35.5380 C.3       2 GLL5        0.0000 
      3 CA        -19.7850    4.2150   37.2130 C.3       2 GLL5        0.0000 
      4 CA        -20.7270    5.3970   35.7300 C.3       2 GLL5        0.0000 
      5 CA        -17.0080    0.4100   33.5540 C.3       2 GLL5        0.0000 
      6 CA        -15.7470    3.1350   38.8180 C.3       2 GLL5        0.0000 
      7 CA        -16.2420    5.1330   34.6610 C.3       2 GLL5        0.0000 
      8 CA        -18.3170    4.1590   37.4250 C.3       2 GLL5        0.0000 
      9 CA        -15.9420    3.2890   33.1360 C.3       2 GLL5        0.0000 
     10 CA        -20.0350    2.5880   39.0220 C.3       2 GLL5        0.0000 
     11 CA        -16.6930    2.4200   34.0640 C.3       2 GLL5        0.0000 
     12 N         -13.9750    0.2740   30.9520 N.am      3 SEP1        0.0000 
     13 CA        -16.4770    6.8680   38.9450 C.3       4 GLP5        0.0000 
     14 CA        -18.5530    8.1050   38.2910 C.3       4 GLP5        0.0000 
     15 CA        -19.3350    3.7650   32.1560 C.3       4 GLP5        0.0000 
     16 CA        -18.4730    8.1920   33.9320 C.3       4 GLP5        0.0000 
     17 CA        -13.1300    1.0890   34.2270 C.3       4 GLP5        0.0000 
     18 CA        -14.3820    4.2750   42.7340 C.3       4 GLP5        0.0000 
     19 CA        -16.2190    7.9390   32.8270 C.3       4 GLP5        0.0000 
     20 CA        -12.4200    6.1310   35.4830 C.3       4 GLP5        0.0000 
     21 CA        -20.6970    6.0940   41.0130 C.3       4 GLP5        0.0000 
     22 N         -14.7210    1.5215   31.4680 N.am      5 SEC1        0.0000 
     23 CA        -16.7130    5.5940   37.2415 C.3       6 GLC5        0.0000 
     24 CA        -19.1690    6.1600   37.7520 C.3       6 GLC5        0.0000 
     25 CA        -19.6400    6.7510   37.0105 C.3       6 GLC5        0.0000 
     26 CA        -20.0310    4.5810   33.9430 C.3       6 GLC5        0.0000 
     27 CA        -19.6000    6.7945   34.8310 C.3       6 GLC5        0.0000 
     28 CA        -15.0690    0.7495   33.8905 C.3       6 GLC5        0.0000 
     29 CA        -18.1715    2.0875   32.8550 C.3       6 GLC5        0.0000 
     30 CA        -16.1120    5.0015   38.8815 C.3       6 GLC5        0.0000 
     31 CA        -15.0645    3.7050   40.7760 C.3       6 GLC5        0.0000 
     32 CA        -16.2305    6.5360   33.7440 C.3       6 GLC5        0.0000 
     33 CA        -17.5343    6.4592   34.5157 C.3       6 GLC5        0.0000 
     34 CA        -17.2662    5.2893   38.4495 C.3       6 GLC5        0.0000 
     35 CA        -14.2055    5.5040   34.7717 C.3       6 GLC5        0.0000 
     36 CA        -14.5794    2.4134   33.8785 C.3       6 GLC5        0.0000 
     37 CA        -20.1969    4.5838   39.7564 C.3       6 GLC5        0.0000 
     38 CA        -17.9117    3.6919   33.2361 C.3       6 GLC5        0.0000 
@<TRIPOS>BOND
@<TRIPOS>SUBSTRUCTURE
     1 SEL1        1 GROUP        1 Z    SEL  0     ROOT SEL Z 0
     2 GLL5        2 GROUP        1 Z    GLL  0     **** GLL Z 4
     3 SEP1       12 GROUP        1 Z    SEP  0     **** SEP Z 7
     4 GLP5       13 GROUP        1 Z    GLP  0     **** GLP Z 11
     5 SEC1       22 GROUP        1 Z    SEC  0     **** SEC Z 14
     6 GLC5       23 GROUP        1 Z    GLC  0     **** GLC Z 18
@<TRIPOS>SET

