#    Name: 10026
#    Modification time : Tue Aug  8 21:12:46 2017

@<TRIPOS>MOLECULE
10026
   67     0    15     0     0
SMALL
NO_CHARGES


@<TRIPOS>ATOM
      1 N          30.8140  -12.3400  -26.7930 N.am      1 SEL1        0.0000 
      2 N          31.9650  -11.8510  -29.0740 N.am      1 SEL1        0.0000 
      3 N          30.9630  -15.8820  -29.7980 N.am      1 SEL1        0.0000 
      4 N          30.9540  -13.8800  -31.4950 N.am      1 SEL1        0.0000 
      5 N          28.1740  -17.3380  -31.3900 N.am      1 SEL1        0.0000 
      6 N          28.7190  -14.8720  -30.9490 N.am      1 SEL1        0.0000 
      7 N          25.2700  -16.0210  -35.2660 N.am      1 SEL1        0.0000 
      8 N          22.0500  -17.5390  -34.7030 N.am      1 SEL1        0.0000 
      9 O          22.5920  -18.0320  -31.0150 O.2       2 ALL2        0.0000 
     10 O          24.5170  -17.3410  -38.1000 O.2       2 ALL2        0.0000 
     11 NZ         32.1710  -14.3120  -28.0110 N.4       3 LYL3        0.0000 
     12 NZ         31.9650  -11.8510  -29.0740 N.4       3 LYL3        0.0000 
     13 NZ         30.9540  -13.8800  -31.4950 N.4       3 LYL3        0.0000 
     14 NZ         27.8120  -16.2470  -28.9870 N.4       3 LYL3        0.0000 
     15 CA         24.1250  -14.9490  -30.3220 C.3       4 GLL5        0.0000 
     16 CA         23.6710  -17.1480  -31.1900 C.3       4 GLL5        0.0000 
     17 CA         23.1830  -16.1080  -32.1870 C.3       4 GLL5        0.0000 
     18 CA         25.6090  -14.5880  -30.3590 C.3       4 GLL5        0.0000 
     19 Zn         32.1710  -14.3120  -28.0110 Zn        5 ZIL7        0.0000 
     20 Zn         30.9630  -15.8820  -29.7980 Zn        5 ZIL7        0.0000 
     21 N          28.2150  -13.6030  -26.8780 N.am      6 SEP1        0.0000 
     22 N          33.4900  -12.7300  -31.3200 N.am      6 SEP1        0.0000 
     23 N          29.3080  -10.9300  -30.2870 N.am      6 SEP1        0.0000 
     24 N          31.2430  -18.5710  -31.7110 N.am      6 SEP1        0.0000 
     25 N          28.8430  -11.9940  -32.8030 N.am      6 SEP1        0.0000 
     26 N          30.8310  -16.3910  -33.5980 N.am      6 SEP1        0.0000 
     27 N          26.1820  -19.0340  -31.8920 N.am      6 SEP1        0.0000 
     28 N          28.8280  -19.9460  -32.0290 N.am      6 SEP1        0.0000 
     29 N          28.6790  -14.5180  -33.8850 N.am      6 SEP1        0.0000 
     30 N          26.4900  -14.8620  -37.3790 N.am      6 SEP1        0.0000 
     31 N          20.5610  -18.1630  -32.2510 N.am      6 SEP1        0.0000 
     32 O          22.0730  -21.1190  -29.6850 O.2       7 ALP2        0.0000 
     33 O          24.5330  -18.3930  -40.7500 O.2       7 ALP2        0.0000 
     34 O          26.4900  -14.8620  -37.3790 O.2       7 ALP2        0.0000 
     35 NZ         33.4900  -12.7300  -31.3200 N.4       8 LYP3        0.0000 
     36 NZ         26.9550  -13.5550  -26.4740 N.4       8 LYP3        0.0000 
     37 CA         20.0280  -14.5360  -31.6090 C.3       9 GLP5        0.0000 
     38 CA         26.6970  -19.5220  -33.1220 C.3       9 GLP5        0.0000 
     39 CA         23.3410  -12.2150  -33.9540 C.3       9 GLP5        0.0000 
     40 CA         24.4250  -11.5610  -28.4980 C.3       9 GLP5        0.0000 
     41 Zn         32.0350  -16.5350  -28.2080 Zn       10 ZIP7        0.0000 
     42 N          29.5145  -12.9715  -26.8355 N.am     11 SEC1        0.0000 
     43 N          32.7275  -12.2905  -30.1970 N.am     11 SEC1        0.0000 
     44 N          30.6365  -11.3905  -29.6805 N.am     11 SEC1        0.0000 
     45 N          31.1030  -17.2265  -30.7545 N.am     11 SEC1        0.0000 
     46 N          32.2220  -13.3050  -31.4075 N.am     11 SEC1        0.0000 
     47 N          29.8985  -12.9370  -32.1490 N.am     11 SEC1        0.0000 
     48 N          30.8925  -15.1355  -32.5465 N.am     11 SEC1        0.0000 
     49 N          27.1780  -18.1860  -31.6410 N.am     11 SEC1        0.0000 
     50 N          28.5010  -18.6420  -31.7095 N.am     11 SEC1        0.0000 
     51 N          28.6990  -14.6950  -32.4170 N.am     11 SEC1        0.0000 
     52 N          25.8800  -15.4415  -36.3225 N.am     11 SEC1        0.0000 
     53 N          21.3055  -17.8510  -33.4770 N.am     11 SEC1        0.0000 
     54 O          22.3325  -19.5755  -30.3500 O.2      12 ALC2        0.0000 
     55 O          24.5250  -17.8670  -39.4250 O.2      12 ALC2        0.0000 
     56 O          25.5035  -16.1015  -37.7395 O.2      12 ALC2        0.0000 
     57 NZ         32.8305  -13.5210  -29.6655 N.4      13 LYC3        0.0000 
     58 NZ         32.7275  -12.2905  -30.1970 N.4      13 LYC3        0.0000 
     59 NZ         32.2220  -13.3050  -31.4075 N.4      13 LYC3        0.0000 
     60 NZ         27.3835  -14.9010  -27.7305 N.4      13 LYC3        0.0000 
     61 CA         22.0765  -14.7425  -30.9655 C.3      14 GLC5        0.0000 
     62 CA         25.1840  -18.3350  -32.1560 C.3      14 GLC5        0.0000 
     63 CA         23.2620  -14.1615  -33.0705 C.3      14 GLC5        0.0000 
     64 CA         21.6055  -15.3220  -31.8980 C.3      14 GLC5        0.0000 
     65 CA         24.6460  -13.1647  -29.4192 C.3      14 GLC5        0.0000 
     66 Zn         32.1030  -15.4235  -28.1095 Zn       15 ZIC7        0.0000 
     67 Zn         31.4990  -16.2085  -29.0030 Zn       15 ZIC7        0.0000 
@<TRIPOS>BOND
@<TRIPOS>SUBSTRUCTURE
     1 SEL1        1 GROUP        1 Z    SEL  0     ROOT SEL Z 0
     2 ALL2        9 GROUP        1 Z    ALL  0     **** ALL Z 1
     3 LYL3       11 GROUP        1 Z    LYL  0     **** LYL Z 2
     4 GLL5       15 GROUP        1 Z    GLL  0     **** GLL Z 4
     5 ZIL7       19 GROUP        1 Z    ZIL  0     **** ZIL Z 5
     6 SEP1       21 GROUP        1 Z    SEP  0     **** SEP Z 7
     7 ALP2       32 GROUP        1 Z    ALP  0     **** ALP Z 8
     8 LYP3       35 GROUP        1 Z    LYP  0     **** LYP Z 9
     9 GLP5       37 GROUP        1 Z    GLP  0     **** GLP Z 11
    10 ZIP7       41 GROUP        1 Z    ZIP  0     **** ZIP Z 12
    11 SEC1       42 GROUP        1 Z    SEC  0     **** SEC Z 14
    12 ALC2       54 GROUP        1 Z    ALC  0     **** ALC Z 15
    13 LYC3       57 GROUP        1 Z    LYC  0     **** LYC Z 16
    14 GLC5       61 GROUP        1 Z    GLC  0     **** GLC Z 18
    15 ZIC7       66 GROUP        1 Z    ZIC  0     **** ZIC Z 19
@<TRIPOS>SET

