3ix8_TX3_2_ligand
  -OEChem-08111718373D

 45 47  0     1  0  0  0  0  0999 V2000
  -22.9017   16.7383   41.4976 H   0  0  0  0  0  0  0  0  0  0  0  0
  -27.2956   10.3911   48.3374 H   0  0  0  0  0  0  0  0  0  0  0  0
  -22.1082   18.0627   39.6859 H   0  0  0  0  0  0  0  0  0  0  0  0
  -29.4483   10.6527   49.3185 H   0  0  0  0  0  0  0  0  0  0  0  0
  -25.1510   15.9427   41.5342 H   0  0  0  0  0  0  0  0  0  0  0  0
  -26.8650   11.1363   46.1057 H   0  0  0  0  0  0  0  0  0  0  0  0
  -23.5226   18.6396   37.8490 H   0  0  0  0  0  0  0  0  0  0  0  0
  -31.2315   11.6802   48.1019 H   0  0  0  0  0  0  0  0  0  0  0  0
  -30.6713   13.5453   42.8830 H   0  0  0  0  0  0  0  0  0  0  0  0
  -32.2235   16.6443   40.5738 H   0  0  0  0  0  0  0  0  0  0  0  0
  -25.5871   18.5813   36.7691 H   0  0  0  0  0  0  0  0  0  0  0  0
  -26.4046   17.1797   36.9529 H   0  0  0  0  0  0  0  0  0  0  0  0
  -26.8903   18.5190   37.7511 H   0  0  0  0  0  0  0  0  0  0  0  0
  -27.2140   14.6879   42.7224 H   0  0  0  0  0  0  0  0  0  0  0  0
  -27.7781   13.2717   42.1368 H   0  0  0  0  0  0  0  0  0  0  0  0
  -28.1873   14.2528   44.8251 H   0  0  0  0  0  0  0  0  0  0  0  0
  -23.5190   16.9610   40.7430 C   0  0  0  0  0  0  0  0  0  0  0  0
  -28.0290   10.8200   47.8100 C   0  0  0  0  0  0  0  0  0  0  0  0
  -23.0550   17.7410   39.6770 C   0  0  0  0  0  0  0  0  0  0  0  0
  -29.2890   10.9740   48.3850 C   0  0  0  0  0  0  0  0  0  0  0  0
  -24.8260   16.4930   40.7650 C   0  0  0  0  0  0  0  0  0  0  0  0
  -27.7750   11.2580   46.5020 C   0  0  0  0  0  0  0  0  0  0  0  0
  -23.8800   18.0830   38.5990 C   0  0  0  0  0  0  0  0  0  0  0  0
  -30.3350   11.5730   47.6720 C   0  0  0  0  0  0  0  0  0  0  0  0
  -30.5000   14.3580   42.3260 C   0  0  0  0  0  0  0  0  0  0  0  0
  -31.4190   16.1930   40.9600 C   0  0  0  0  0  0  0  0  0  0  0  0
  -25.6830   16.7960   39.7060 C   0  0  0  0  0  0  0  0  0  0  0  0
  -28.7840   11.8630   45.7490 C   0  0  0  0  0  0  0  0  0  0  0  0
  -25.2030   17.6430   38.5770 C   0  0  0  0  0  0  0  0  0  0  0  0
  -29.1940   14.7830   42.1230 C   0  0  0  0  0  0  0  0  0  0  0  0
  -28.9860   15.9830   41.2820 C   0  0  0  0  0  0  0  0  0  0  0  0
  -30.1340   12.0230   46.3610 C   0  0  0  0  0  0  0  0  0  0  0  0
  -31.5820   15.0480   41.7640 C   0  0  0  0  0  0  0  0  0  0  0  0
  -30.1430   16.7070   40.6950 C   0  0  0  0  0  0  0  0  0  0  0  0
  -28.5340   12.3250   44.3420 C   0  0  0  0  0  0  0  0  0  0  0  0
  -27.0840   16.2970   39.7850 C   0  0  0  0  0  0  0  0  0  0  0  0
  -26.0970   18.0120   37.4140 C   0  0  0  0  0  0  0  0  0  0  0  0
  -27.9930   14.0610   42.7120 C   0  0  2  0  0  0  0  0  0  0  0  0
  -28.2400   13.5970   44.0720 N   0  0  0  0  0  0  0  0  0  0  0  0
  -28.6350   11.5040   43.4400 O   0  0  0  0  0  0  0  0  0  0  0  0
  -27.7000   15.8300   38.8450 O   0  0  0  0  0  0  0  0  0  0  0  0
  -27.7270   16.4280   41.0670 O   0  0  0  0  0  0  0  0  0  0  0  0
  -31.4760   12.8060   45.4350 Cl  0  0  0  0  0  0  0  0  0  0  0  0
  -33.2980   14.3540   42.1440 Br  0  0  0  0  0  0  0  0  0  0  0  0
  -29.8040   18.2660   39.6550 Br  0  0  0  0  0  0  0  0  0  0  0  0
  1 17  1  0  0  0  0
  2 18  1  0  0  0  0
  3 19  1  0  0  0  0
  4 20  1  0  0  0  0
  5 21  1  0  0  0  0
  6 22  1  0  0  0  0
  7 23  1  0  0  0  0
  8 24  1  0  0  0  0
  9 25  1  0  0  0  0
 10 26  1  0  0  0  0
 11 37  1  0  0  0  0
 12 37  1  0  0  0  0
 13 37  1  0  0  0  0
 14 38  1  0  0  0  0
 15 38  1  0  0  0  0
 16 39  1  0  0  0  0
 17 19  2  0  0  0  0
 17 21  1  0  0  0  0
 18 20  2  0  0  0  0
 18 22  1  0  0  0  0
 19 23  1  0  0  0  0
 20 24  1  0  0  0  0
 21 27  2  0  0  0  0
 22 28  2  0  0  0  0
 23 29  2  0  0  0  0
 24 32  2  0  0  0  0
 25 30  2  0  0  0  0
 25 33  1  0  0  0  0
 26 33  2  0  0  0  0
 26 34  1  0  0  0  0
 27 29  1  0  0  0  0
 27 36  1  0  0  0  0
 28 32  1  0  0  0  0
 28 35  1  0  0  0  0
 29 37  1  0  0  0  0
 30 31  1  0  0  0  0
 30 38  1  0  0  0  0
 31 34  2  0  0  0  0
 31 42  1  0  0  0  0
 32 43  1  0  0  0  0
 33 44  1  0  0  0  0
 34 45  1  0  0  0  0
 35 39  1  0  0  0  0
 35 40  2  0  0  0  0
 36 41  2  0  0  0  0
 36 42  1  0  0  0  0
 38 39  1  0  0  0  0
M  END
> <scpdb_id>
3ix8_2

$$$$
