#    Name: 27636
#    Modification time : Tue Aug  8 21:09:28 2017

@<TRIPOS>MOLECULE
27636
   66     0     9     0     0
SMALL
NO_CHARGES


@<TRIPOS>ATOM
      1 N           6.4380  -34.4820   -6.1200 N.am      1 SEL1        0.0000 
      2 N           6.6100  -34.8900   -3.7940 N.am      1 SEL1        0.0000 
      3 N          12.8720  -36.1920   -2.1350 N.am      1 SEL1        0.0000 
      4 N          13.2550  -38.2940   -0.8650 N.am      1 SEL1        0.0000 
      5 N          14.2330  -34.9520    2.4140 N.am      1 SEL1        0.0000 
      6 N          13.1710  -37.2600    2.5180 N.am      1 SEL1        0.0000 
      7 N          19.5350  -36.6580   -2.3070 N.am      1 SEL1        0.0000 
      8 O           7.1990  -36.0020   -7.7850 O.2       2 ALL2        0.0000 
      9 O           6.8510  -39.0390   -0.7660 O.2       2 ALL2        0.0000 
     10 O           7.1960  -37.3940    1.1870 O.2       2 ALL2        0.0000 
     11 O          19.5350  -36.6580   -2.3070 O.2       2 ALL2        0.0000 
     12 O          19.2430  -38.0870    1.9400 O.2       2 ALL2        0.0000 
     13 CA          7.5910  -36.8940   -1.7990 C.3       3 GLL5        0.0000 
     14 CA          8.8890  -36.0970   -0.0620 C.3       3 GLL5        0.0000 
     15 CA         16.3820  -36.3370    0.5830 C.3       3 GLL5        0.0000 
     16 CA         19.6720  -36.5470    0.1090 C.3       3 GLL5        0.0000 
     17 CA         10.3820  -35.9360    0.2230 C.3       3 GLL5        0.0000 
     18 CA         17.4870  -37.3770    0.4980 C.3       3 GLL5        0.0000 
     19 CA         18.7850  -36.4870   -1.1030 C.3       3 GLL5        0.0000 
     20 N           5.7170  -32.2850   -8.0990 N.am      4 SEP1        0.0000 
     21 N           5.7760  -34.1100   -1.1370 N.am      4 SEP1        0.0000 
     22 N          12.2350  -36.4950   -4.7550 N.am      4 SEP1        0.0000 
     23 N          15.0190  -35.2180   -3.2420 N.am      4 SEP1        0.0000 
     24 N          13.7850  -38.6640   -3.7400 N.am      4 SEP1        0.0000 
     25 N          13.4080  -40.2930    1.2830 N.am      4 SEP1        0.0000 
     26 N          12.0490  -34.3420    4.0310 N.am      4 SEP1        0.0000 
     27 N          15.4320  -33.5360    4.2280 N.am      4 SEP1        0.0000 
     28 N          10.7500  -38.7220    2.6180 N.am      4 SEP1        0.0000 
     29 N          14.7640  -39.5920    3.6190 N.am      4 SEP1        0.0000 
     30 N          17.4130  -38.2440   -4.1640 N.am      4 SEP1        0.0000 
     31 N          17.9780  -35.5450   -4.2450 N.am      4 SEP1        0.0000 
     32 O           6.8430  -34.5200  -10.0060 O.2       5 ALP2        0.0000 
     33 O           4.4450  -38.9210    0.0630 O.2       5 ALP2        0.0000 
     34 O           7.5680  -36.9290    3.6920 O.2       5 ALP2        0.0000 
     35 O          20.8270  -34.5070   -4.3270 O.2       5 ALP2        0.0000 
     36 O          17.6470  -38.1730    4.0340 O.2       5 ALP2        0.0000 
     37 CA         10.4660  -34.2630   -3.8060 C.3       6 GLP5        0.0000 
     38 CA          6.2110  -34.0200    2.5770 C.3       6 GLP5        0.0000 
     39 CA         14.6280  -32.6590    0.1000 C.3       6 GLP5        0.0000 
     40 CA         22.9270  -34.7700    1.2070 C.3       6 GLP5        0.0000 
     41 CA         15.7540  -40.6000    0.6000 C.3       6 GLP5        0.0000 
     42 CA         21.8570  -38.4700   -3.2390 C.3       6 GLP5        0.0000 
     43 N           6.0775  -33.3835   -7.1095 N.am      7 SEC1        0.0000 
     44 N           6.1930  -34.5000   -2.4655 N.am      7 SEC1        0.0000 
     45 N          12.5535  -36.3435   -3.4450 N.am      7 SEC1        0.0000 
     46 N          13.9455  -35.7050   -2.6885 N.am      7 SEC1        0.0000 
     47 N          13.5200  -38.4790   -2.3025 N.am      7 SEC1        0.0000 
     48 N          13.3315  -39.2935    0.2090 N.am      7 SEC1        0.0000 
     49 N          13.1410  -34.6470    3.2225 N.am      7 SEC1        0.0000 
     50 N          14.8325  -34.2440    3.3210 N.am      7 SEC1        0.0000 
     51 N          11.9605  -37.9910    2.5680 N.am      7 SEC1        0.0000 
     52 N          13.9675  -38.4260    3.0685 N.am      7 SEC1        0.0000 
     53 N          18.4740  -37.4510   -3.2355 N.am      7 SEC1        0.0000 
     54 N          18.7565  -36.1015   -3.2760 N.am      7 SEC1        0.0000 
     55 O           7.0210  -35.2610   -8.8955 O.2       8 ALC2        0.0000 
     56 O           5.6480  -38.9800   -0.3515 O.2       8 ALC2        0.0000 
     57 O           7.3820  -37.1615    2.4395 O.2       8 ALC2        0.0000 
     58 O          20.1810  -35.5825   -3.3170 O.2       8 ALC2        0.0000 
     59 O          18.4450  -38.1300    2.9870 O.2       8 ALC2        0.0000 
     60 CA          9.0285  -35.5785   -2.8025 C.3       9 GLC5        0.0000 
     61 CA          7.5500  -35.0585    1.2575 C.3       9 GLC5        0.0000 
     62 CA         15.5050  -34.4980    0.3415 C.3       9 GLC5        0.0000 
     63 CA         21.2995  -35.6585    0.6580 C.3       9 GLC5        0.0000 
     64 CA         10.0507  -35.1397   -1.8628 C.3       9 GLC5        0.0000 
     65 CA         16.3443  -38.7285    0.5702 C.3       9 GLC5        0.0000 
     66 CA         20.5427  -37.4935   -1.8680 C.3       9 GLC5        0.0000 
@<TRIPOS>BOND
@<TRIPOS>SUBSTRUCTURE
     1 SEL1        1 GROUP        1 Z    SEL  0     ROOT SEL Z 0
     2 ALL2        8 GROUP        1 Z    ALL  0     **** ALL Z 1
     3 GLL5       13 GROUP        1 Z    GLL  0     **** GLL Z 4
     4 SEP1       20 GROUP        1 Z    SEP  0     **** SEP Z 7
     5 ALP2       32 GROUP        1 Z    ALP  0     **** ALP Z 8
     6 GLP5       37 GROUP        1 Z    GLP  0     **** GLP Z 11
     7 SEC1       43 GROUP        1 Z    SEC  0     **** SEC Z 14
     8 ALC2       55 GROUP        1 Z    ALC  0     **** ALC Z 15
     9 GLC5       60 GROUP        1 Z    GLC  0     **** GLC Z 18
@<TRIPOS>SET

