#    Name: 18737
#    Modification time : Wed Aug  9 00:49:47 2017

@<TRIPOS>MOLECULE
18737
   34     0     9     0     0
SMALL
NO_CHARGES


@<TRIPOS>ATOM
      1 N         -26.6380   67.7780   22.1380 N.am      1 SEL1        0.0000 
      2 O         -24.7680   67.1630   23.1620 O.2       2 ALL2        0.0000 
      3 CA        -23.1630   65.0110   27.9420 C.3       3 GLL5        0.0000 
      4 CA        -23.8530   62.5720   27.8200 C.3       3 GLL5        0.0000 
      5 CA        -18.5410   62.2900   30.5470 C.3       3 GLL5        0.0000 
      6 CA        -28.2260   65.9160   23.6140 C.3       3 GLL5        0.0000 
      7 CA        -28.9780   64.9920   24.3890 C.3       3 GLL5        0.0000 
      8 CA        -28.3310   64.2120   25.3860 C.3       3 GLL5        0.0000 
      9 CA        -19.7140   62.6330   29.6230 C.3       3 GLL5        0.0000 
     10 CA        -26.9610   64.3500   25.6060 C.3       3 GLL5        0.0000 
     11 N         -28.9870   69.3270   21.1200 N.am      4 SEP1        0.0000 
     12 N         -25.0210   69.8450   20.8870 N.am      4 SEP1        0.0000 
     13 O         -23.1120   69.4490   22.9120 O.2       5 ALP2        0.0000 
     14 CA        -25.5670   67.7790   28.2530 C.3       6 GLP5        0.0000 
     15 CA        -21.5520   58.7570   27.8100 C.3       6 GLP5        0.0000 
     16 CA        -16.4630   61.4240   33.9060 C.3       6 GLP5        0.0000 
     17 CA        -31.6500   66.6860   21.2070 C.3       6 GLP5        0.0000 
     18 CA        -31.9160   67.8930   24.8600 C.3       6 GLP5        0.0000 
     19 CA        -30.7640   61.3080   24.8080 C.3       6 GLP5        0.0000 
     20 CA        -19.4000   65.5320   32.7190 C.3       6 GLP5        0.0000 
     21 CA        -19.3120   59.1290   28.5520 C.3       6 GLP5        0.0000 
     22 CA        -26.2290   61.9840   23.0600 C.3       6 GLP5        0.0000 
     23 N         -27.8125   68.5525   21.6290 N.am      7 SEC1        0.0000 
     24 N         -25.8295   68.8115   21.5125 N.am      7 SEC1        0.0000 
     25 O         -23.9400   68.3060   23.0370 O.2       8 ALC2        0.0000 
     26 CA        -24.3650   66.3950   28.0975 C.3       9 GLC5        0.0000 
     27 CA        -22.7025   60.6645   27.8150 C.3       9 GLC5        0.0000 
     28 CA        -17.5020   61.8570   32.2265 C.3       9 GLC5        0.0000 
     29 CA        -30.1260   66.0700   22.6043 C.3       9 GLC5        0.0000 
     30 CA        -30.2590   66.6735   24.4307 C.3       9 GLC5        0.0000 
     31 CA        -29.7093   62.9550   24.8478 C.3       9 GLC5        0.0000 
     32 CA        -19.2638   63.9967   31.4020 C.3       9 GLC5        0.0000 
     33 CA        -19.2197   60.7952   29.3185 C.3       9 GLC5        0.0000 
     34 CA        -27.2550   63.5245   23.7791 C.3       9 GLC5        0.0000 
@<TRIPOS>BOND
@<TRIPOS>SUBSTRUCTURE
     1 SEL1        1 GROUP        1 Z    SEL  0     ROOT SEL Z 0
     2 ALL2        2 GROUP        1 Z    ALL  0     **** ALL Z 1
     3 GLL5        3 GROUP        1 Z    GLL  0     **** GLL Z 4
     4 SEP1       11 GROUP        1 Z    SEP  0     **** SEP Z 7
     5 ALP2       13 GROUP        1 Z    ALP  0     **** ALP Z 8
     6 GLP5       14 GROUP        1 Z    GLP  0     **** GLP Z 11
     7 SEC1       23 GROUP        1 Z    SEC  0     **** SEC Z 14
     8 ALC2       25 GROUP        1 Z    ALC  0     **** ALC Z 15
     9 GLC5       26 GROUP        1 Z    GLC  0     **** GLC Z 18
@<TRIPOS>SET

