2rcw_AAI_1_ligand
  -OEChem-08111718373D

 44 46  0     1  0  0  0  0  0999 V2000
  -29.9606   64.8907   24.2333 H   0  0  0  0  0  0  0  0  0  0  0  0
  -28.6854   66.4624   22.9137 H   0  0  0  0  0  0  0  0  0  0  0  0
  -28.8602   63.5621   25.9314 H   0  0  0  0  0  0  0  0  0  0  0  0
  -23.9171   65.2416   28.5569 H   0  0  0  0  0  0  0  0  0  0  0  0
  -22.9232   65.8121   27.3936 H   0  0  0  0  0  0  0  0  0  0  0  0
  -24.0171   61.8163   27.1859 H   0  0  0  0  0  0  0  0  0  0  0  0
  -24.6576   62.7016   28.3995 H   0  0  0  0  0  0  0  0  0  0  0  0
  -21.6985   65.3320   29.4041 H   0  0  0  0  0  0  0  0  0  0  0  0
  -21.1693   64.4100   28.1646 H   0  0  0  0  0  0  0  0  0  0  0  0
  -22.8919   61.4500   29.3033 H   0  0  0  0  0  0  0  0  0  0  0  0
  -21.8764   61.9548   28.1282 H   0  0  0  0  0  0  0  0  0  0  0  0
  -22.8783   63.6984   26.3400 H   0  0  0  0  0  0  0  0  0  0  0  0
  -17.7355   62.0717   29.9961 H   0  0  0  0  0  0  0  0  0  0  0  0
  -18.3401   63.0732   31.1354 H   0  0  0  0  0  0  0  0  0  0  0  0
  -18.7818   61.5012   31.1126 H   0  0  0  0  0  0  0  0  0  0  0  0
  -19.4586   63.4177   29.0581 H   0  0  0  0  0  0  0  0  0  0  0  0
  -19.9003   61.8457   29.0352 H   0  0  0  0  0  0  0  0  0  0  0  0
  -21.2498   62.1886   30.9619 H   0  0  0  0  0  0  0  0  0  0  0  0
  -20.7953   63.7563   31.0079 H   0  0  0  0  0  0  0  0  0  0  0  0
  -26.3104   63.0391   27.1648 H   0  0  0  0  0  0  0  0  0  0  0  0
  -24.2334   67.8107   22.6192 H   0  0  0  0  0  0  0  0  0  0  0  0
  -24.3152   66.5892   23.8445 H   0  0  0  0  0  0  0  0  0  0  0  0
  -28.9780   64.9920   24.3890 C   0  0  0  0  0  0  0  0  0  0  0  0
  -28.2260   65.9160   23.6140 C   0  0  0  0  0  0  0  0  0  0  0  0
  -28.3310   64.2120   25.3860 C   0  0  0  0  0  0  0  0  0  0  0  0
  -26.8180   66.0740   23.8240 C   0  0  0  0  0  0  0  0  0  0  0  0
  -26.1880   65.2880   24.8200 C   0  0  0  0  0  0  0  0  0  0  0  0
  -26.9610   64.3500   25.6060 C   0  0  0  0  0  0  0  0  0  0  0  0
  -24.8700   64.2680   26.2490 C   0  0  0  0  0  0  0  0  0  0  0  0
  -26.0900   67.0640   22.9750 C   0  0  0  0  0  0  0  0  0  0  0  0
  -23.1630   65.0110   27.9420 C   0  0  1  0  0  0  0  0  0  0  0  0
  -23.8530   62.5720   27.8200 C   0  0  1  0  0  0  0  0  0  0  0  0
  -21.9360   64.5860   28.7820 C   0  0  2  0  0  0  0  0  0  0  0  0
  -22.6400   62.2200   28.7170 C   0  0  1  0  0  0  0  0  0  0  0  0
  -23.6070   63.8700   27.0030 C   0  0  1  0  0  0  0  0  0  0  0  0
  -18.5410   62.2900   30.5470 C   0  0  0  0  0  0  0  0  0  0  0  0
  -19.7140   62.6330   29.6230 C   0  0  1  0  0  0  0  0  0  0  0  0
  -21.0040   62.9840   30.4080 C   0  0  1  0  0  0  0  0  0  0  0  0
  -24.8790   65.1870   25.2770 N   0  0  0  0  0  0  0  0  0  0  0  0
  -26.0850   63.7380   26.4860 N   0  0  0  0  0  0  0  0  0  0  0  0
  -24.7680   67.1630   23.1620 N   0  0  0  0  0  0  0  0  0  0  0  0
  -22.1970   63.3540   29.5870 N   0  3  1  0  0  0  0  0  0  0  0  0
  -26.6380   67.7780   22.1380 O   0  0  0  0  0  0  0  0  0  0  0  0
  -22.9451   63.5593   30.2180 H   0  0  0  0  0  0  0  0  0  0  0  0
  1 23  1  0  0  0  0
  2 24  1  0  0  0  0
  3 25  1  0  0  0  0
  4 31  1  0  0  0  0
  5 31  1  0  0  0  0
  6 32  1  0  0  0  0
  7 32  1  0  0  0  0
  8 33  1  0  0  0  0
  9 33  1  0  0  0  0
 10 34  1  0  0  0  0
 11 34  1  0  0  0  0
 12 35  1  0  0  0  0
 13 36  1  0  0  0  0
 14 36  1  0  0  0  0
 15 36  1  0  0  0  0
 16 37  1  0  0  0  0
 17 37  1  0  0  0  0
 18 38  1  0  0  0  0
 19 38  1  0  0  0  0
 20 40  1  0  0  0  0
 21 41  1  0  0  0  0
 22 41  1  0  0  0  0
 23 24  1  0  0  0  0
 23 25  2  0  0  0  0
 24 26  2  0  0  0  0
 25 28  1  0  0  0  0
 26 27  1  0  0  0  0
 26 30  1  0  0  0  0
 27 28  2  0  0  0  0
 27 39  1  0  0  0  0
 28 40  1  0  0  0  0
 29 35  1  0  0  0  0
 29 39  2  0  0  0  0
 29 40  1  0  0  0  0
 30 41  1  0  0  0  0
 30 43  2  0  0  0  0
 31 33  1  0  0  0  0
 31 35  1  0  0  0  0
 32 34  1  0  0  0  0
 32 35  1  0  0  0  0
 33 42  1  0  0  0  0
 34 42  1  0  0  0  0
 36 37  1  0  0  0  0
 37 38  1  0  0  0  0
 38 42  1  0  0  0  0
 42 44  1  0  0  0  0
M  CHG  1  42   1
M  END
> <scpdb_id>
2rcw_1

$$$$
