3fal_REA_3_ligand
  -OEChem-08111718373D

 49 49  0     1  0  0  0  0  0999 V2000
   83.6134   57.0056   12.9628 H   0  0  0  0  0  0  0  0  0  0  0  0
   82.8700   58.5067   10.5969 H   0  0  0  0  0  0  0  0  0  0  0  0
   81.4755   58.3541    9.0473 H   0  0  0  0  0  0  0  0  0  0  0  0
   79.9177   56.2746    7.7814 H   0  0  0  0  0  0  0  0  0  0  0  0
   80.9740   55.5004    9.7042 H   0  0  0  0  0  0  0  0  0  0  0  0
   79.0965   56.7944    5.5955 H   0  0  0  0  0  0  0  0  0  0  0  0
   86.8772   60.4962   12.7310 H   0  0  0  0  0  0  0  0  0  0  0  0
   86.0711   61.3570   11.6014 H   0  0  0  0  0  0  0  0  0  0  0  0
   85.7502   62.2458   13.8145 H   0  0  0  0  0  0  0  0  0  0  0  0
   84.3391   61.8005   13.1236 H   0  0  0  0  0  0  0  0  0  0  0  0
   85.8170   60.0157   14.8308 H   0  0  0  0  0  0  0  0  0  0  0  0
   84.6367   60.9824   15.4133 H   0  0  0  0  0  0  0  0  0  0  0  0
   84.9973   58.1547   10.5055 H   0  0  0  0  0  0  0  0  0  0  0  0
   85.3692   59.6479    9.9589 H   0  0  0  0  0  0  0  0  0  0  0  0
   86.5239   58.7179   10.6433 H   0  0  0  0  0  0  0  0  0  0  0  0
   81.9978   54.5642   11.4933 H   0  0  0  0  0  0  0  0  0  0  0  0
   83.4867   55.1616   11.7986 H   0  0  0  0  0  0  0  0  0  0  0  0
   82.2212   55.6080   12.7292 H   0  0  0  0  0  0  0  0  0  0  0  0
   80.0093   60.1448    6.3699 H   0  0  0  0  0  0  0  0  0  0  0  0
   79.8579   59.8783    7.9739 H   0  0  0  0  0  0  0  0  0  0  0  0
   81.2977   59.6448    7.2397 H   0  0  0  0  0  0  0  0  0  0  0  0
   81.8971   59.5993   13.7558 H   0  0  0  0  0  0  0  0  0  0  0  0
   82.3681   60.5663   14.9845 H   0  0  0  0  0  0  0  0  0  0  0  0
   82.6670   61.0044   13.4400 H   0  0  0  0  0  0  0  0  0  0  0  0
   83.1428   57.7201   14.7758 H   0  0  0  0  0  0  0  0  0  0  0  0
   84.7189   57.9094   15.1591 H   0  0  0  0  0  0  0  0  0  0  0  0
   83.5723   58.7154   15.9971 H   0  0  0  0  0  0  0  0  0  0  0  0
   84.2970   58.9830   12.7830 C   0  0  0  0  0  0  0  0  0  0  0  0
   85.2260   59.5370   11.9980 C   0  0  0  0  0  0  0  0  0  0  0  0
   83.5930   57.8070   12.3650 C   0  0  0  0  0  0  0  0  0  0  0  0
   82.9100   57.7240   11.2180 C   0  0  0  0  0  0  0  0  0  0  0  0
   81.0950   57.4390    8.9140 C   0  0  0  0  0  0  0  0  0  0  0  0
   80.2960   57.1960    7.8700 C   0  0  0  0  0  0  0  0  0  0  0  0
   81.4100   56.3890    9.8470 C   0  0  0  0  0  0  0  0  0  0  0  0
   79.3300   57.7550    5.7460 C   0  0  0  0  0  0  0  0  0  0  0  0
   82.2380   56.5070   10.8880 C   0  0  0  0  0  0  0  0  0  0  0  0
   79.9400   58.1610    6.8650 C   0  0  0  0  0  0  0  0  0  0  0  0
   79.0100   58.8200    4.7180 C   0  0  0  0  0  0  0  0  0  0  0  0
   85.9720   60.7540   12.3930 C   0  0  1  0  0  0  0  0  0  0  0  0
   85.2130   61.4710   13.4810 C   0  0  1  0  0  0  0  0  0  0  0  0
   84.9700   60.4970   14.6050 C   0  0  1  0  0  0  0  0  0  0  0  0
   83.9310   59.5170   14.1260 C   0  0  1  0  0  0  0  0  0  0  0  0
   85.5560   58.9680   10.6680 C   0  0  0  0  0  0  0  0  0  0  0  0
   82.5080   55.3670   11.8020 C   0  0  0  0  0  0  0  0  0  0  0  0
   80.3060   59.5720    7.1340 C   0  0  0  0  0  0  0  0  0  0  0  0
   82.6040   60.2320   14.0720 C   0  0  0  0  0  0  0  0  0  0  0  0
   83.8330   58.3690   15.0960 C   0  0  0  0  0  0  0  0  0  0  0  0
   78.8490   60.0000    5.1260 O   0  5  0  0  0  0  0  0  0  0  0  0
   78.9530   58.3800    3.5340 O   0  0  0  0  0  0  0  0  0  0  0  0
  1 30  1  0  0  0  0
  2 31  1  0  0  0  0
  3 32  1  0  0  0  0
  4 33  1  0  0  0  0
  5 34  1  0  0  0  0
  6 35  1  0  0  0  0
  7 39  1  0  0  0  0
  8 39  1  0  0  0  0
  9 40  1  0  0  0  0
 10 40  1  0  0  0  0
 11 41  1  0  0  0  0
 12 41  1  0  0  0  0
 13 43  1  0  0  0  0
 14 43  1  0  0  0  0
 15 43  1  0  0  0  0
 16 44  1  0  0  0  0
 17 44  1  0  0  0  0
 18 44  1  0  0  0  0
 19 45  1  0  0  0  0
 20 45  1  0  0  0  0
 21 45  1  0  0  0  0
 22 46  1  0  0  0  0
 23 46  1  0  0  0  0
 24 46  1  0  0  0  0
 25 47  1  0  0  0  0
 26 47  1  0  0  0  0
 27 47  1  0  0  0  0
 28 29  2  0  0  0  0
 28 30  1  0  0  0  0
 28 42  1  0  0  0  0
 29 39  1  0  0  0  0
 29 43  1  0  0  0  0
 30 31  2  0  0  0  0
 31 36  1  0  0  0  0
 32 33  2  0  0  0  0
 32 34  1  0  0  0  0
 33 37  1  0  0  0  0
 34 36  2  0  0  0  0
 35 37  2  0  0  0  0
 35 38  1  0  0  0  0
 36 44  1  0  0  0  0
 37 45  1  0  0  0  0
 38 48  1  0  0  0  0
 38 49  2  0  0  0  0
 39 40  1  0  0  0  0
 40 41  1  0  0  0  0
 41 42  1  0  0  0  0
 42 46  1  0  0  0  0
 42 47  1  0  0  0  0
M  CHG  1  48  -1
M  END
> <scpdb_id>
3fal_3

$$$$
