#    Name: 26094
#    Modification time : Tue Aug  8 21:34:06 2017

@<TRIPOS>MOLECULE
26094
   63     0    15     0     0
SMALL
NO_CHARGES


@<TRIPOS>ATOM
      1 N           0.6800   18.6020   12.9220 N.am      1 SEL1        0.0000 
      2 N           2.0390   16.8620   14.1820 N.am      1 SEL1        0.0000 
      3 N           1.2630   19.0690   15.2240 N.am      1 SEL1        0.0000 
      4 N           1.3600   19.6710   17.6330 N.am      1 SEL1        0.0000 
      5 N           3.5560   19.5380   16.4910 N.am      1 SEL1        0.0000 
      6 N           2.5630   20.7620   19.8760 N.am      1 SEL1        0.0000 
      7 O          -1.0600   28.1780   22.4980 O.2       2 ALL2        0.0000 
      8 NZ          0.6800   18.6020   12.9220 N.4       3 LYL3        0.0000 
      9 NZ          2.0390   16.8620   14.1820 N.4       3 LYL3        0.0000 
     10 CA          4.2960   22.6910   17.6640 C.3       4 GLL5        0.0000 
     11 CA          3.7590   22.9010   19.1210 C.3       4 GLL5        0.0000 
     12 CA          2.4140   22.1480   19.3470 C.3       4 GLL5        0.0000 
     13 CA          1.5950   23.1190   20.1890 C.3       4 GLL5        0.0000 
     14 CA          2.3030   24.5070   20.1140 C.3       4 GLL5        0.0000 
     15 Zn          3.1080   19.0620   13.5520 Zn        5 ZIL7        0.0000 
     16 Zn          3.5560   19.5380   16.4910 Zn        5 ZIL7        0.0000 
     17 Zn          4.0860   21.6380   14.8250 Zn        5 ZIL7        0.0000 
     18 N          -1.6160   16.7890   13.6710 N.am      6 SEP1        0.0000 
     19 N           0.6080   18.0140   10.1770 N.am      6 SEP1        0.0000 
     20 N          -0.8310   20.7550   12.9550 N.am      6 SEP1        0.0000 
     21 N           0.9050   15.0800   12.6810 N.am      6 SEP1        0.0000 
     22 N           2.9930   16.1300   16.7390 N.am      6 SEP1        0.0000 
     23 N          -1.0660   17.4610   15.8380 N.am      6 SEP1        0.0000 
     24 N          -0.8680   18.8810   18.8700 N.am      6 SEP1        0.0000 
     25 N           3.8160   17.7990   18.9550 N.am      6 SEP1        0.0000 
     26 N           3.7110   18.6830   21.8340 N.am      6 SEP1        0.0000 
     27 O          -1.4260   26.5850   24.8450 O.2       7 ALP2        0.0000 
     28 NZ         -1.8160   16.7170   14.9980 N.4       8 LYP3        0.0000 
     29 NZ          0.6080   18.0140   10.1770 N.4       8 LYP3        0.0000 
     30 NZ         -0.8310   20.7550   12.9550 N.4       8 LYP3        0.0000 
     31 CA          8.3010   21.0380   17.4640 C.3       9 GLP5        0.0000 
     32 CA          4.6950   22.9440   23.0570 C.3       9 GLP5        0.0000 
     33 CA          4.2850   21.6010   23.1540 C.3       9 GLP5        0.0000 
     34 CA          2.5330   23.6490   23.9880 C.3       9 GLP5        0.0000 
     35 CA          3.8310   23.9460   23.4960 C.3       9 GLP5        0.0000 
     36 CA          5.8460   19.1740   19.5420 C.3       9 GLP5        0.0000 
     37 CA         -1.0930   19.8010   19.9360 C.3       9 GLP5        0.0000 
     38 Zn          5.1140   19.8590   14.7210 Zn       10 ZIP7        0.0000 
     39 N          -0.4680   17.6955   13.2965 N.am     11 SEC1        0.0000 
     40 N           0.6440   18.3080   11.5495 N.am     11 SEC1        0.0000 
     41 N          -0.0755   19.6785   12.9385 N.am     11 SEC1        0.0000 
     42 N           1.4720   15.9710   13.4315 N.am     11 SEC1        0.0000 
     43 N           2.5160   16.4960   15.4605 N.am     11 SEC1        0.0000 
     44 N           0.0985   18.2650   15.5310 N.am     11 SEC1        0.0000 
     45 N           0.2460   19.2760   18.2515 N.am     11 SEC1        0.0000 
     46 N           2.5880   18.7350   18.2940 N.am     11 SEC1        0.0000 
     47 N           3.6860   18.6685   17.7230 N.am     11 SEC1        0.0000 
     48 N           3.1370   19.7225   20.8550 N.am     11 SEC1        0.0000 
     49 O          -1.2430   27.3815   23.6715 O.2      12 ALC2        0.0000 
     50 NZ         -0.5680   17.6595   13.9600 N.4      13 LYC3        0.0000 
     51 NZ          0.6440   18.3080   11.5495 N.4      13 LYC3        0.0000 
     52 NZ         -0.0755   19.6785   12.9385 N.4      13 LYC3        0.0000 
     53 NZ          0.1115   16.7895   14.5900 N.4      13 LYC3        0.0000 
     54 CA          6.2985   21.8645   17.5640 C.3      14 GLC5        0.0000 
     55 CA          4.2270   22.9225   21.0890 C.3      14 GLC5        0.0000 
     56 CA          3.3495   21.8745   21.2505 C.3      14 GLC5        0.0000 
     57 CA          2.0640   23.3840   22.0885 C.3      14 GLC5        0.0000 
     58 CA          3.0670   24.2265   21.8050 C.3      14 GLC5        0.0000 
     59 CA          4.9367   20.9850   18.9672 C.3      14 GLC5        0.0000 
     60 CA          0.4558   21.2172   19.8520 C.3      14 GLC5        0.0000 
     61 Zn          4.1110   19.4605   14.1365 Zn       15 ZIC7        0.0000 
     62 Zn          4.3350   19.6985   15.6060 Zn       15 ZIC7        0.0000 
     63 Zn          4.6000   20.7485   14.7730 Zn       15 ZIC7        0.0000 
@<TRIPOS>BOND
@<TRIPOS>SUBSTRUCTURE
     1 SEL1        1 GROUP        1 Z    SEL  0     ROOT SEL Z 0
     2 ALL2        7 GROUP        1 Z    ALL  0     **** ALL Z 1
     3 LYL3        8 GROUP        1 Z    LYL  0     **** LYL Z 2
     4 GLL5       10 GROUP        1 Z    GLL  0     **** GLL Z 4
     5 ZIL7       15 GROUP        1 Z    ZIL  0     **** ZIL Z 5
     6 SEP1       18 GROUP        1 Z    SEP  0     **** SEP Z 7
     7 ALP2       27 GROUP        1 Z    ALP  0     **** ALP Z 8
     8 LYP3       28 GROUP        1 Z    LYP  0     **** LYP Z 9
     9 GLP5       31 GROUP        1 Z    GLP  0     **** GLP Z 11
    10 ZIP7       38 GROUP        1 Z    ZIP  0     **** ZIP Z 12
    11 SEC1       39 GROUP        1 Z    SEC  0     **** SEC Z 14
    12 ALC2       49 GROUP        1 Z    ALC  0     **** ALC Z 15
    13 LYC3       50 GROUP        1 Z    LYC  0     **** LYC Z 16
    14 GLC5       54 GROUP        1 Z    GLC  0     **** GLC Z 18
    15 ZIC7       61 GROUP        1 Z    ZIC  0     **** ZIC Z 19
@<TRIPOS>SET

