3g6x_DGT_1_ligand
  -OEChem-08111718373D

 43 45  0     1  0  0  0  0  0999 V2000
    2.0086   25.0215   17.3834 H   0  0  0  0  0  0  0  0  0  0  0  0
    1.5590   22.8038   21.1373 H   0  0  0  0  0  0  0  0  0  0  0  0
    0.6661   23.1883   19.8253 H   0  0  0  0  0  0  0  0  0  0  0  0
    1.9631   22.0768   18.4573 H   0  0  0  0  0  0  0  0  0  0  0  0
    4.4389   22.5747   19.7778 H   0  0  0  0  0  0  0  0  0  0  0  0
    2.5198   24.8415   21.0311 H   0  0  0  0  0  0  0  0  0  0  0  0
    5.1874   23.1337   17.5667 H   0  0  0  0  0  0  0  0  0  0  0  0
    4.3874   21.7130   17.4766 H   0  0  0  0  0  0  0  0  0  0  0  0
   -1.7748   29.2167   20.4654 H   0  0  0  0  0  0  0  0  0  0  0  0
   -0.7185   27.7110   23.3136 H   0  0  0  0  0  0  0  0  0  0  0  0
   -1.7095   28.9329   22.5892 H   0  0  0  0  0  0  0  0  0  0  0  0
    2.1605   20.1135   19.2299 H   0  0  0  0  0  0  0  0  0  0  0  0
    1.4870   25.6070   18.0040 C   0  0  0  0  0  0  0  0  0  0  0  0
    0.1140   27.1600   18.6940 C   0  0  0  0  0  0  0  0  0  0  0  0
    0.6700   26.4300   19.8610 C   0  0  0  0  0  0  0  0  0  0  0  0
   -0.8820   28.2120   18.9710 C   0  0  0  0  0  0  0  0  0  0  0  0
   -0.6470   27.7920   21.2820 C   0  0  0  0  0  0  0  0  0  0  0  0
    1.5950   23.1190   20.1890 C   0  0  2  0  0  0  0  0  0  0  0  0
    2.4140   22.1480   19.3470 C   0  0  1  0  0  0  0  0  0  0  0  0
    3.7590   22.9010   19.1210 C   0  0  1  0  0  0  0  0  0  0  0  0
    2.3030   24.5070   20.1140 C   0  0  2  0  0  0  0  0  0  0  0  0
    4.2960   22.6910   17.6640 C   0  0  1  0  0  0  0  0  0  0  0  0
    0.6310   26.6090   17.5910 N   0  0  0  0  0  0  0  0  0  0  0  0
    0.2480   26.7800   21.1190 N   0  0  0  0  0  0  0  0  0  0  0  0
   -1.1490   28.4640   20.2610 N   0  0  0  0  0  0  0  0  0  0  0  0
    1.5320   25.5160   19.3620 N   0  0  0  0  0  0  0  0  0  0  0  0
   -1.0600   28.1780   22.4980 N   0  0  0  0  0  0  0  0  0  0  0  0
    0.6800   18.6020   12.9220 O   0  5  0  0  0  0  0  0  0  0  0  0
    2.0390   16.8620   14.1820 O   0  5  0  0  0  0  0  0  0  0  0  0
    1.9790   23.2970   14.5480 O   0  5  0  0  0  0  0  0  0  0  0  0
    3.5560   19.5380   16.4910 O   0  5  0  0  0  0  0  0  0  0  0  0
   -1.4290   28.8870   18.0570 O   0  0  0  0  0  0  0  0  0  0  0  0
    3.1080   19.0620   13.5520 O   0  0  0  0  0  0  0  0  0  0  0  0
    4.0860   21.6380   14.8250 O   0  0  0  0  0  0  0  0  0  0  0  0
    1.3600   19.6710   17.6330 O   0  0  0  0  0  0  0  0  0  0  0  0
    3.4750   24.3050   19.3730 O   0  0  0  0  0  0  0  0  0  0  0  0
    2.5630   20.7620   19.8760 O   0  0  0  0  0  0  0  0  0  0  0  0
    3.3260   23.2980   16.7050 O   0  0  0  0  0  0  0  0  0  0  0  0
    1.2630   19.0690   15.2240 O   0  0  0  0  0  0  0  0  0  0  0  0
    1.7860   21.3760   15.8230 O   0  0  0  0  0  0  0  0  0  0  0  0
    1.8480   18.3000   13.8670 P   0  0  0  0  0  0  0  0  0  0  0  0
    2.9110   22.5010   15.3560 P   0  0  1  0  0  0  0  0  0  0  0  0
    2.0990   19.9170   16.3620 P   0  0  2  0  0  0  0  0  0  0  0  0
  1 13  1  0  0  0  0
  2 18  1  0  0  0  0
  3 18  1  0  0  0  0
  4 19  1  0  0  0  0
  5 20  1  0  0  0  0
  6 21  1  0  0  0  0
  7 22  1  0  0  0  0
  8 22  1  0  0  0  0
  9 25  1  0  0  0  0
 10 27  1  0  0  0  0
 11 27  1  0  0  0  0
 12 37  1  0  0  0  0
 13 23  2  0  0  0  0
 13 26  1  0  0  0  0
 14 15  2  0  0  0  0
 14 16  1  0  0  0  0
 14 23  1  0  0  0  0
 15 24  1  0  0  0  0
 15 26  1  0  0  0  0
 16 25  1  0  0  0  0
 16 32  2  0  0  0  0
 17 24  2  0  0  0  0
 17 25  1  0  0  0  0
 17 27  1  0  0  0  0
 18 19  1  0  0  0  0
 18 21  1  0  0  0  0
 19 20  1  0  0  0  0
 19 37  1  0  0  0  0
 20 22  1  0  0  0  0
 20 36  1  0  0  0  0
 21 26  1  0  0  0  0
 21 36  1  0  0  0  0
 22 38  1  0  0  0  0
 28 41  1  0  0  0  0
 29 41  1  0  0  0  0
 30 42  1  0  0  0  0
 31 43  1  0  0  0  0
 33 41  2  0  0  0  0
 34 42  2  0  0  0  0
 35 43  2  0  0  0  0
 38 42  1  0  0  0  0
 39 41  1  0  0  0  0
 39 43  1  0  0  0  0
 40 42  1  0  0  0  0
 40 43  1  0  0  0  0
M  CHG  4  28  -1  29  -1  31  -1  30  -1
M  END
> <scpdb_id>
3g6x_1

$$$$
