@<TRIPOS>MOLECULE
2x9d_ITC_1_ligand
   57    60     1     0     0
SMALL
NO_CHARGES


@<TRIPOS>ATOM
     1 C1          20.3340    34.7080    33.8070 C.2          1 ITC1209   0.0000
     2 O1          19.7720    35.3120    32.8670 O.2          1 ITC1209   0.0000
     3 C2          19.5870    33.8060    34.6670 C.2          1 ITC1209   0.0000
     4 C2'         18.3180    33.1890    34.2120 C.2          1 ITC1209   0.0000
     5 O2'         17.7490    32.3640    34.9200 O.2          1 ITC1209   0.0000
     6 N2'         17.7210    33.6120    33.0950 N.am         1 ITC1209   0.0000
     7 C3          20.0990    33.5240    35.9060 C.2          1 ITC1209   0.0000
     8 O3          19.4660    32.6590    36.7020 O.3          1 ITC1209   0.0000
     9 C4          21.3190    34.1850    36.5040 C.3          1 ITC1209   0.0000
    10 N4          22.1250    33.2180    37.2800 N.4          1 ITC1209   1.0000
    11 C4'         23.1000    32.4290    36.5070 C.3          1 ITC1209   0.0000
    12 C4D         22.7230    33.9360    38.3990 C.3          1 ITC1209   0.0000
    13 C4A         22.1190    35.0990    35.5330 C.3          1 ITC1209   0.0000
    14 C5          21.7930    36.5740    35.8480 C.3          1 ITC1209   0.0000
    15 C5A         22.5140    37.5650    34.9300 C.3          1 ITC1209   0.0000
    16 C6          22.2400    39.0600    35.2130 C.3          1 ITC1209   0.0000
    17 O6          20.8680    39.3870    34.9430 O.3          1 ITC1209   0.0000
    18 C6'         22.4960    39.5140    36.6550 C.3          1 ITC1209   0.0000
    19 C6A         23.0000    39.8800    34.1990 C.ar         1 ITC1209   0.0000
    20 C7          24.3800    39.9870    33.9520 C.ar         1 ITC1209   0.0000
    21 CL7         25.5790    39.1210    34.9130 Cl           1 ITC1209   0.0000
    22 C8          24.8520    40.8130    32.9240 C.ar         1 ITC1209   0.0000
    23 C9          23.9360    41.5060    32.1260 C.ar         1 ITC1209   0.0000
    24 C10         22.5650    41.3720    32.3710 C.ar         1 ITC1209   0.0000
    25 O10         21.6850    42.0150    31.6200 O.3          1 ITC1209   0.0000
    26 C6B         22.1270    40.5680    33.4150 C.ar         1 ITC1209   0.0000
    27 O11         19.7100    40.7800    33.2080 O.2          1 ITC1209   0.0000
    28 C5B         22.1590    37.1670    33.5170 C.3          1 ITC1209   0.0000
    29 C12         22.4850    35.8800    33.2320 C.2          1 ITC1209   0.0000
    30 O12         23.4020    35.5940    32.3380 O.2          1 ITC1209   0.0000
    31 C4B         21.8490    34.8010    34.0540 C.3          1 ITC1209   0.0000
    32 O4B         22.4850    33.5620    33.7640 O.3          1 ITC1209   0.0000
    33 C11         20.7430    40.2950    33.8070 C.2          1 ITC1209   0.0000
    34 H2'1        16.8652    33.1905    32.7950 H            1 ITC1209   0.0000
    35 H2'2        18.1297    34.3503    32.5584 H            1 ITC1209   0.0000
    36 H3          18.6222    32.2203    36.3929 H            1 ITC1209   0.0000
    37 H4          20.9517    34.8119    37.1911 H            1 ITC1209   0.0000
    38 H4'1        23.5896    31.8099    37.1211 H            1 ITC1209   0.0000
    39 H4'2        22.6200    31.8964    35.8099 H            1 ITC1209   0.0000
    40 H4'3        23.7522    33.0451    36.0654 H            1 ITC1209   0.0000
    41 H4D1        23.2756    33.3046    38.9430 H            1 ITC1209   0.0000
    42 H4D2        23.3035    34.6720    38.0508 H            1 ITC1209   0.0000
    43 H4D3        22.0000    34.3238    38.9708 H            1 ITC1209   0.0000
    44 H4A         23.0935    34.9543    35.7046 H            1 ITC1209   0.0000
    45 H12         22.0617    36.7634    36.7924 H            1 ITC1209   0.0000
    46 H13         20.8072    36.7091    35.7484 H            1 ITC1209   0.0000
    47 H5A         23.4962    37.4156    35.0435 H            1 ITC1209   0.0000
    48 H6'1        22.2920    40.4894    36.7386 H            1 ITC1209   0.0000
    49 H6'2        21.9085    38.9961    37.2768 H            1 ITC1209   0.0000
    50 H6'3        23.4545    39.3526    36.8901 H            1 ITC1209   0.0000
    51 H18         25.8344    40.9063    32.7622 H            1 ITC1209   0.0000
    52 H19         24.2591    42.0940    31.3845 H            1 ITC1209   0.0000
    53 H20         20.7064    41.9152    31.8000 H            1 ITC1209   0.0000
    54 H5B1        22.6478    37.7675    32.8842 H            1 ITC1209   0.0000
    55 H5B2        21.1736    37.2817    33.3914 H            1 ITC1209   0.0000
    56 H4B         23.4675    33.6445    33.9310 H            1 ITC1209   0.0000
    57 H24         21.4801    32.5637    37.6750 H            1 ITC1209   0.0000
@<TRIPOS>BOND
     1    1    2       2
     2    1    3       1
     3    1   31       1
     4    3    4       1
     5    3    7       2
     6    4    5       2
     7    4    6      am
     8    7    8       1
     9    7    9       1
    10    9   10       1
    11    9   13       1
    12   10   11       1
    13   10   12       1
    14   13   14       1
    15   13   31       1
    16   14   15       1
    17   15   16       1
    18   15   28       1
    19   16   17       1
    20   16   18       1
    21   16   19       1
    22   17   33       1
    23   19   20      ar
    24   19   26      ar
    25   20   21       1
    26   20   22      ar
    27   22   23      ar
    28   23   24      ar
    29   24   25       1
    30   24   26      ar
    31   26   33       1
    32   27   33       2
    33   28   29       1
    34   29   30       2
    35   29   31       1
    36   31   32       1
    37    6   34       1
    38    6   35       1
    39    8   36       1
    40    9   37       1
    41   11   38       1
    42   11   39       1
    43   11   40       1
    44   12   41       1
    45   12   42       1
    46   12   43       1
    47   13   44       1
    48   14   45       1
    49   14   46       1
    50   15   47       1
    51   18   48       1
    52   18   49       1
    53   18   50       1
    54   22   51       1
    55   23   52       1
    56   25   53       1
    57   28   54       1
    58   28   55       1
    59   32   56       1
    60   10   57       1
@<TRIPOS>SUBSTRUCTURE
     1 ITC1209     1 GROUP             4 A     ITC     0 **** ITC A1209
