#    Name: 15979
#    Modification time : Wed Aug  9 00:18:29 2017

@<TRIPOS>MOLECULE
15979
   89     0     6     0     0
SMALL
NO_CHARGES


@<TRIPOS>ATOM
      1 N          -3.9900   -5.1720    7.3390 N.am      1 SEL1        0.0000 
      2 N          -5.9140   -5.1990    6.2240 N.am      1 SEL1        0.0000 
      3 CA         -1.3890  -13.1080   -1.1960 C.3       2 GLL5        0.0000 
      4 CA         -0.3890  -11.1910   -0.1220 C.3       2 GLL5        0.0000 
      5 CA         -2.1570   -5.9350   -2.7910 C.3       2 GLL5        0.0000 
      6 CA         -1.0300   -5.7740   -3.5920 C.3       2 GLL5        0.0000 
      7 CA          0.1110   -5.1730   -3.0670 C.3       2 GLL5        0.0000 
      8 CA          0.1250   -4.7370   -1.7460 C.3       2 GLL5        0.0000 
      9 CA         -0.0420   -9.3530    1.2890 C.3       2 GLL5        0.0000 
     10 CA         -6.2530   -7.9410    4.4600 C.3       2 GLL5        0.0000 
     11 CA         -6.8940   -8.1410    3.2400 C.3       2 GLL5        0.0000 
     12 CA         -6.3670   -7.5800    2.0810 C.3       2 GLL5        0.0000 
     13 CA         -4.3760   -6.9830    5.8570 C.3       2 GLL5        0.0000 
     14 CA         -0.7290  -15.6740   -0.6210 C.3       2 GLL5        0.0000 
     15 CA         -2.2800  -10.6790   -1.9920 C.3       2 GLL5        0.0000 
     16 CA         -0.5990  -13.9600   -0.4280 C.3       2 GLL5        0.0000 
     17 CA          0.3990  -12.0470    0.6450 C.3       2 GLL5        0.0000 
     18 CA         -1.0030   -4.9010   -0.9470 C.3       2 GLL5        0.0000 
     19 CA          0.2970  -13.4270    0.4940 C.3       2 GLL5        0.0000 
     20 CA         -2.1460   -5.4990   -1.4690 C.3       2 GLL5        0.0000 
     21 CA         -4.5650   -6.6230    3.3530 C.3       2 GLL5        0.0000 
     22 N          -1.7690   -6.9310    7.8150 N.am      3 SEP1        0.0000 
     23 N          -4.1170   -2.4820    8.1560 N.am      3 SEP1        0.0000 
     24 N          -6.9200   -3.5240    4.0420 N.am      3 SEP1        0.0000 
     25 N          -6.7340   -2.8260    7.3160 N.am      3 SEP1        0.0000 
     26 CA         -4.3780  -12.5300   -4.3050 C.3       4 GLP5        0.0000 
     27 CA         -0.4650  -14.2590   -4.9240 C.3       4 GLP5        0.0000 
     28 CA          1.5610   -8.3510   -2.8270 C.3       4 GLP5        0.0000 
     29 CA         -5.9810   -7.8770   -3.2990 C.3       4 GLP5        0.0000 
     30 CA          2.5080   -4.2950   -4.8280 C.3       4 GLP5        0.0000 
     31 CA          2.9140   -3.3000   -0.1730 C.3       4 GLP5        0.0000 
     32 CA          3.1750   -4.0220   -6.1500 C.3       4 GLP5        0.0000 
     33 CA          1.8510   -9.5730    4.1930 C.3       4 GLP5        0.0000 
     34 CA         -3.7420  -10.4160    1.2980 C.3       4 GLP5        0.0000 
     35 CA         -5.2870  -10.5360    7.9180 C.3       4 GLP5        0.0000 
     36 CA        -10.2790   -5.7390    1.7350 C.3       4 GLP5        0.0000 
     37 CA         -9.4560   -7.4940   -0.6210 C.3       4 GLP5        0.0000 
     38 CA         -9.0320   -6.1680    4.5290 C.3       4 GLP5        0.0000 
     39 CA         -3.4420   -9.9570    3.0190 C.3       4 GLP5        0.0000 
     40 CA         -4.4020   -7.7700   10.1030 C.3       4 GLP5        0.0000 
     41 CA         -0.5360  -19.1560   -0.8170 C.3       4 GLP5        0.0000 
     42 CA         -1.3870  -16.3540    2.6680 C.3       4 GLP5        0.0000 
     43 CA          1.1290  -10.0620   -4.5780 C.3       4 GLP5        0.0000 
     44 CA         -4.8420  -14.0050   -0.8060 C.3       4 GLP5        0.0000 
     45 CA          1.6020  -14.4760   -3.5650 C.3       4 GLP5        0.0000 
     46 CA          3.4330  -12.9230   -1.4650 C.3       4 GLP5        0.0000 
     47 CA          1.3270   -4.4060    1.3810 C.3       4 GLP5        0.0000 
     48 CA         -1.8250  -14.9150    2.7700 C.3       4 GLP5        0.0000 
     49 CA         -1.2220   -6.1900    5.5990 C.3       4 GLP5        0.0000 
     50 CA         -3.2330   -2.6450   -3.1160 C.3       4 GLP5        0.0000 
     51 N          -2.8795   -6.0515    7.5770 N.am      5 SEC1        0.0000 
     52 N          -4.0535   -3.8270    7.7475 N.am      5 SEC1        0.0000 
     53 N          -6.4170   -4.3615    5.1330 N.am      5 SEC1        0.0000 
     54 N          -6.3240   -4.0125    6.7700 N.am      5 SEC1        0.0000 
     55 CA         -2.8835  -12.8190   -2.7505 C.3       6 GLC5        0.0000 
     56 CA         -0.9270  -13.6835   -3.0600 C.3       6 GLC5        0.0000 
     57 CA          0.5860   -9.7710   -1.4745 C.3       6 GLC5        0.0000 
     58 CA         -4.0690   -6.9060   -3.0450 C.3       6 GLC5        0.0000 
     59 CA          0.7390   -5.0345   -4.2100 C.3       6 GLC5        0.0000 
     60 CA          1.5125   -4.2365   -1.6200 C.3       6 GLC5        0.0000 
     61 CA          1.6430   -4.5975   -4.6085 C.3       6 GLC5        0.0000 
     62 CA          1.3165   -4.5160   -3.2870 C.3       6 GLC5        0.0000 
     63 CA          0.9045   -9.4630    2.7410 C.3       6 GLC5        0.0000 
     64 CA         -1.8920   -9.8845    1.2935 C.3       6 GLC5        0.0000 
     65 CA         -5.7700   -9.2385    6.1890 C.3       6 GLC5        0.0000 
     66 CA         -8.5865   -6.9400    2.4875 C.3       6 GLC5        0.0000 
     67 CA         -7.9115   -7.5370    0.7300 C.3       6 GLC5        0.0000 
     68 CA         -7.6995   -6.8740    3.3050 C.3       6 GLC5        0.0000 
     69 CA         -3.9090   -8.4700    4.4380 C.3       6 GLC5        0.0000 
     70 CA         -4.8315   -8.7595    6.8875 C.3       6 GLC5        0.0000 
     71 CA         -4.3890   -7.3765    7.9800 C.3       6 GLC5        0.0000 
     72 CA         -0.6325  -17.4150   -0.7190 C.3       6 GLC5        0.0000 
     73 CA         -1.0580  -16.0140    1.0235 C.3       6 GLC5        0.0000 
     74 CA         -3.0110  -10.5475   -0.3470 C.3       6 GLC5        0.0000 
     75 CA         -3.3290  -11.6045   -3.1485 C.3       6 GLC5        0.0000 
     76 CA         -0.5755  -10.3705   -3.2850 C.3       6 GLC5        0.0000 
     77 CA         -2.7530  -14.4110   -0.6653 C.3       6 GLC5        0.0000 
     78 CA          0.4690  -14.6465   -2.0448 C.3       6 GLC5        0.0000 
     79 CA          1.7190  -12.2710   -0.6018 C.3       6 GLC5        0.0000 
     80 CA          0.4440   -4.6125    0.0173 C.3       6 GLC5        0.0000 
     81 CA         -1.1300  -14.0586    1.2668 C.3       6 GLC5        0.0000 
     82 CA          1.4121  -13.5024   -0.9785 C.3       6 GLC5        0.0000 
     83 CA         -3.1515  -12.9611   -1.0143 C.3       6 GLC5        0.0000 
     84 CA         -2.0855  -11.0639    0.5592 C.3       6 GLC5        0.0000 
     85 CA          0.6247   -6.7927   -2.7974 C.3       6 GLC5        0.0000 
     86 CA         -7.6314   -6.9608    4.5534 C.3       6 GLC5        0.0000 
     87 CA         -3.0006   -6.5913    5.0800 C.3       6 GLC5        0.0000 
     88 CA         -2.1257   -4.0181   -2.7751 C.3       6 GLC5        0.0000 
     89 CA         -4.6251   -8.6816    3.0821 C.3       6 GLC5        0.0000 
@<TRIPOS>BOND
@<TRIPOS>SUBSTRUCTURE
     1 SEL1        1 GROUP        1 Z    SEL  0     ROOT SEL Z 0
     2 GLL5        3 GROUP        1 Z    GLL  0     **** GLL Z 4
     3 SEP1       22 GROUP        1 Z    SEP  0     **** SEP Z 7
     4 GLP5       26 GROUP        1 Z    GLP  0     **** GLP Z 11
     5 SEC1       51 GROUP        1 Z    SEC  0     **** SEC Z 14
     6 GLC5       55 GROUP        1 Z    GLC  0     **** GLC Z 18
@<TRIPOS>SET

