#    Name: 23441
#    Modification time : Wed Aug  9 01:06:44 2017

@<TRIPOS>MOLECULE
23441
   28     0     6     0     0
SMALL
NO_CHARGES


@<TRIPOS>ATOM
      1 N          62.2760   18.5740  -38.5020 N.am      1 SEL1        0.0000 
      2 N          65.8270   23.7930  -37.8280 N.am      1 SEL1        0.0000 
      3 N          64.5450   18.3810  -41.8390 N.am      1 SEL1        0.0000 
      4 N          69.8050   12.9710  -40.7180 N.am      1 SEL1        0.0000 
      5 N          73.8500   17.6540  -41.8640 N.am      1 SEL1        0.0000 
      6 O          69.0330   14.7750  -37.7400 O.2       2 ALL2        0.0000 
      7 O          68.2120   23.6710  -37.6810 O.2       2 ALL2        0.0000 
      8 O          72.9020   19.8460  -42.0420 O.2       2 ALL2        0.0000 
      9 N          60.7540   20.9570  -39.0470 N.am      3 SEP1        0.0000 
     10 N          65.8760   26.7870  -38.0120 N.am      3 SEP1        0.0000 
     11 N          66.9050   19.1720  -42.2620 N.am      3 SEP1        0.0000 
     12 N          72.4150   11.8890  -40.7330 N.am      3 SEP1        0.0000 
     13 N          76.6940   18.4880  -41.5410 N.am      3 SEP1        0.0000 
     14 O          69.3230   17.3870  -37.5060 O.2       4 ALP2        0.0000 
     15 O          68.6440   26.2950  -37.6990 O.2       4 ALP2        0.0000 
     16 O          70.1390   22.4070  -35.3870 O.2       4 ALP2        0.0000 
     17 O          71.3730   21.5910  -44.1640 O.2       4 ALP2        0.0000 
     18 O          75.5120   21.0920  -41.8670 O.2       4 ALP2        0.0000 
     19 N          61.5150   19.7655  -38.7745 N.am      5 SEC1        0.0000 
     20 N          65.8515   25.2900  -37.9200 N.am      5 SEC1        0.0000 
     21 N          65.7250   18.7765  -42.0505 N.am      5 SEC1        0.0000 
     22 N          71.1100   12.4300  -40.7255 N.am      5 SEC1        0.0000 
     23 N          75.2720   18.0710  -41.7025 N.am      5 SEC1        0.0000 
     24 O          69.1780   16.0810  -37.6230 O.2       6 ALC2        0.0000 
     25 O          68.4280   24.9830  -37.6900 O.2       6 ALC2        0.0000 
     26 O          69.1755   23.0390  -36.5340 O.2       6 ALC2        0.0000 
     27 O          72.1375   20.7185  -43.1030 O.2       6 ALC2        0.0000 
     28 O          74.2070   20.4690  -41.9545 O.2       6 ALC2        0.0000 
@<TRIPOS>BOND
@<TRIPOS>SUBSTRUCTURE
     1 SEL1        1 GROUP        1 Z    SEL  0     ROOT SEL Z 0
     2 ALL2        6 GROUP        1 Z    ALL  0     **** ALL Z 1
     3 SEP1        9 GROUP        1 Z    SEP  0     **** SEP Z 7
     4 ALP2       14 GROUP        1 Z    ALP  0     **** ALP Z 8
     5 SEC1       19 GROUP        1 Z    SEC  0     **** SEC Z 14
     6 ALC2       24 GROUP        1 Z    ALC  0     **** ALC Z 15
@<TRIPOS>SET

