3c1y_2BA_1_ligand
  -OEChem-08111718373D

 66 72  0     1  0  0  0  0  0999 V2000
   63.7740   23.7746  -37.9344 H   0  0  0  0  0  0  0  0  0  0  0  0
   74.5718   15.7303  -41.7191 H   0  0  0  0  0  0  0  0  0  0  0  0
   67.5644   18.6413  -36.8862 H   0  0  0  0  0  0  0  0  0  0  0  0
   68.3902   17.3768  -42.5303 H   0  0  0  0  0  0  0  0  0  0  0  0
   64.9074   14.7550  -37.0844 H   0  0  0  0  0  0  0  0  0  0  0  0
   65.1161   14.9228  -38.6953 H   0  0  0  0  0  0  0  0  0  0  0  0
   65.5386   14.4446  -42.8171 H   0  0  0  0  0  0  0  0  0  0  0  0
   65.3663   14.5051  -41.1944 H   0  0  0  0  0  0  0  0  0  0  0  0
   63.3742   16.2832  -37.6607 H   0  0  0  0  0  0  0  0  0  0  0  0
   67.1623   13.1566  -41.9142 H   0  0  0  0  0  0  0  0  0  0  0  0
   65.3511   17.6303  -39.1882 H   0  0  0  0  0  0  0  0  0  0  0  0
   67.7264   15.3981  -40.2449 H   0  0  0  0  0  0  0  0  0  0  0  0
   63.9948   19.4472  -39.0559 H   0  0  0  0  0  0  0  0  0  0  0  0
   69.9095   14.9074  -40.2685 H   0  0  0  0  0  0  0  0  0  0  0  0
   63.6464   19.1886  -36.4419 H   0  0  0  0  0  0  0  0  0  0  0  0
   70.0444   14.1369  -42.7813 H   0  0  0  0  0  0  0  0  0  0  0  0
   68.2806   24.6562  -37.8381 H   0  0  0  0  0  0  0  0  0  0  0  0
   69.0404   23.1274  -37.5458 H   0  0  0  0  0  0  0  0  0  0  0  0
   73.8092   20.2543  -41.9407 H   0  0  0  0  0  0  0  0  0  0  0  0
   72.0997   20.4321  -42.1556 H   0  0  0  0  0  0  0  0  0  0  0  0
   61.9370   18.6769  -37.5668 H   0  0  0  0  0  0  0  0  0  0  0  0
   69.2578   12.3767  -41.3074 H   0  0  0  0  0  0  0  0  0  0  0  0
   64.5940   23.2180  -37.8010 C   0  0  0  0  0  0  0  0  0  0  0  0
   73.7520   16.2910  -41.8350 C   0  0  0  0  0  0  0  0  0  0  0  0
   67.1330   19.5260  -37.0630 C   0  0  0  0  0  0  0  0  0  0  0  0
   69.3800   17.3090  -42.4050 C   0  0  0  0  0  0  0  0  0  0  0  0
   66.8910   21.6500  -37.4250 C   0  0  0  0  0  0  0  0  0  0  0  0
   71.4560   17.8760  -42.1700 C   0  0  0  0  0  0  0  0  0  0  0  0
   65.5760   21.0780  -37.4080 C   0  0  0  0  0  0  0  0  0  0  0  0
   71.3960   16.4360  -42.1270 C   0  0  0  0  0  0  0  0  0  0  0  0
   66.9790   23.0640  -37.6510 C   0  0  0  0  0  0  0  0  0  0  0  0
   72.7570   18.4720  -42.0250 C   0  0  0  0  0  0  0  0  0  0  0  0
   65.2250   15.3690  -37.8070 C   0  0  1  0  0  0  0  0  0  0  0  0
   65.9300   14.7970  -41.9670 C   0  0  1  0  0  0  0  0  0  0  0  0
   64.3180   16.5840  -37.7980 C   0  0  2  0  0  0  0  0  0  0  0  0
   67.2640   14.1450  -41.8010 C   0  0  2  0  0  0  0  0  0  0  0  0
   64.3880   17.4050  -39.0410 C   0  0  2  0  0  0  0  0  0  0  0  0
   67.8910   14.4310  -40.4390 C   0  0  2  0  0  0  0  0  0  0  0  0
   63.7140   18.6620  -38.5040 C   0  0  2  0  0  0  0  0  0  0  0  0
   69.3520   14.3100  -40.8450 C   0  0  2  0  0  0  0  0  0  0  0  0
   64.3030   18.8010  -37.0890 C   0  0  2  0  0  0  0  0  0  0  0  0
   69.4450   14.7680  -42.2890 C   0  0  2  0  0  0  0  0  0  0  0  0
   64.4890   21.8870  -37.5920 N   0  0  0  0  0  0  0  0  0  0  0  0
   72.5400   15.7050  -41.9640 N   0  0  0  0  0  0  0  0  0  0  0  0
   65.8270   23.7930  -37.8280 N   0  0  0  0  0  0  0  0  0  0  0  0
   73.8500   17.6540  -41.8640 N   0  0  0  0  0  0  0  0  0  0  0  0
   67.7790   20.6450  -37.2160 N   0  0  0  0  0  0  0  0  0  0  0  0
   70.1910   18.3340  -42.3430 N   0  0  0  0  0  0  0  0  0  0  0  0
   65.7560   19.7270  -37.1790 N   0  0  0  0  0  0  0  0  0  0  0  0
   70.0850   16.0990  -42.2720 N   0  0  0  0  0  0  0  0  0  0  0  0
   68.2120   23.6710  -37.6810 N   0  0  0  0  0  0  0  0  0  0  0  0
   72.9020   19.8460  -42.0420 N   0  0  0  0  0  0  0  0  0  0  0  0
   64.5450   18.3810  -41.8390 O   0  0  0  0  0  0  0  0  0  0  0  0
   67.2280   13.1420  -37.2880 O   0  0  0  0  0  0  0  0  0  0  0  0
   66.6040   15.5740  -37.6070 O   0  0  0  0  0  0  0  0  0  0  0  0
   65.8440   16.1890  -42.0280 O   0  0  0  0  0  0  0  0  0  0  0  0
   64.6800   17.4580  -36.7430 O   0  0  0  0  0  0  0  0  0  0  0  0
   68.1500   14.6460  -42.8130 O   0  0  0  0  0  0  0  0  0  0  0  0
   63.9590   16.6290  -40.1770 O   0  0  0  0  0  0  0  0  0  0  0  0
   67.4320   13.7180  -39.3340 O   0  0  0  0  0  0  0  0  0  0  0  0
   62.2760   18.5740  -38.5020 O   0  0  0  0  0  0  0  0  0  0  0  0
   69.8050   12.9710  -40.7180 O   0  0  0  0  0  0  0  0  0  0  0  0
   63.4340   16.3160  -42.6940 O   0  5  0  0  0  0  0  0  0  0  0  0
   69.0330   14.7750  -37.7400 O   0  5  0  0  0  0  0  0  0  0  0  0
   64.4500   16.8840  -41.7200 P   0  0  1  0  0  0  0  0  0  0  0  0
   67.6130   14.3950  -38.0530 P   0  0  2  0  0  0  0  0  0  0  0  0
  1 23  1  0  0  0  0
  2 24  1  0  0  0  0
  3 25  1  0  0  0  0
  4 26  1  0  0  0  0
  5 33  1  0  0  0  0
  6 33  1  0  0  0  0
  7 34  1  0  0  0  0
  8 34  1  0  0  0  0
  9 35  1  0  0  0  0
 10 36  1  0  0  0  0
 11 37  1  0  0  0  0
 12 38  1  0  0  0  0
 13 39  1  0  0  0  0
 14 40  1  0  0  0  0
 15 41  1  0  0  0  0
 16 42  1  0  0  0  0
 17 51  1  0  0  0  0
 18 51  1  0  0  0  0
 19 52  1  0  0  0  0
 20 52  1  0  0  0  0
 21 61  1  0  0  0  0
 22 62  1  0  0  0  0
 23 43  1  0  0  0  0
 23 45  2  0  0  0  0
 24 44  1  0  0  0  0
 24 46  2  0  0  0  0
 25 47  2  0  0  0  0
 25 49  1  0  0  0  0
 26 48  2  0  0  0  0
 26 50  1  0  0  0  0
 27 29  1  0  0  0  0
 27 31  2  0  0  0  0
 27 47  1  0  0  0  0
 28 30  1  0  0  0  0
 28 32  2  0  0  0  0
 28 48  1  0  0  0  0
 29 43  2  0  0  0  0
 29 49  1  0  0  0  0
 30 44  2  0  0  0  0
 30 50  1  0  0  0  0
 31 45  1  0  0  0  0
 31 51  1  0  0  0  0
 32 46  1  0  0  0  0
 32 52  1  0  0  0  0
 33 35  1  0  0  0  0
 33 55  1  0  0  0  0
 34 36  1  0  0  0  0
 34 56  1  0  0  0  0
 35 37  1  0  0  0  0
 35 57  1  0  0  0  0
 36 38  1  0  0  0  0
 36 58  1  0  0  0  0
 37 39  1  0  0  0  0
 37 59  1  0  0  0  0
 38 40  1  0  0  0  0
 38 60  1  0  0  0  0
 39 41  1  0  0  0  0
 39 61  1  0  0  0  0
 40 42  1  0  0  0  0
 40 62  1  0  0  0  0
 41 49  1  0  0  0  0
 41 57  1  0  0  0  0
 42 50  1  0  0  0  0
 42 58  1  0  0  0  0
 53 65  2  0  0  0  0
 54 66  2  0  0  0  0
 55 66  1  0  0  0  0
 56 65  1  0  0  0  0
 59 65  1  0  0  0  0
 60 66  1  0  0  0  0
 63 65  1  0  0  0  0
 64 66  1  0  0  0  0
M  CHG  2  64  -1  63  -1
M  END
> <scpdb_id>
3c1y_1

$$$$
