#    Name: 50331
#    Modification time : Wed Aug  9 01:03:06 2017

@<TRIPOS>MOLECULE
50331
   43     0     9     0     0
SMALL
NO_CHARGES


@<TRIPOS>ATOM
      1 N          12.1290   19.7140    9.4250 N.am      1 SEL1        0.0000 
      2 O          10.7900   19.4770    6.9730 O.2       2 ALL2        0.0000 
      3 CA          9.4240   17.5450    9.6060 C.3       3 GLL5        0.0000 
      4 CA          9.3640   18.0220    8.1930 C.3       3 GLL5        0.0000 
      5 CA         11.7340   20.9600    5.1420 C.3       3 GLL5        0.0000 
      6 CA         14.0540   20.0010    5.9020 C.3       3 GLL5        0.0000 
      7 CA         15.2210   20.4380    5.0440 C.3       3 GLL5        0.0000 
      8 CA         16.5130   19.9380    5.6530 C.3       3 GLL5        0.0000 
      9 CA         18.0140   20.0990    7.6060 C.3       3 GLL5        0.0000 
     10 N          13.7600   19.4140   12.1140 N.am      4 SEP1        0.0000 
     11 O          11.4780   16.2430    5.9880 O.2       5 ALP2        0.0000 
     12 CA          6.2870   14.6450    8.9600 C.3       6 GLP5        0.0000 
     13 CA         11.5710   14.4510   10.6430 C.3       6 GLP5        0.0000 
     14 CA          6.7330   17.6620    5.5160 C.3       6 GLP5        0.0000 
     15 CA         12.9250   24.7110    6.0540 C.3       6 GLP5        0.0000 
     16 CA          7.9130   19.0470    3.8060 C.3       6 GLP5        0.0000 
     17 CA          8.8820   23.4420    5.1810 C.3       6 GLP5        0.0000 
     18 CA         14.6310   16.2530    7.3130 C.3       6 GLP5        0.0000 
     19 CA         14.2540   21.6330    0.9690 C.3       6 GLP5        0.0000 
     20 CA         15.9810   16.3950    7.0910 C.3       6 GLP5        0.0000 
     21 CA         20.2360   22.3080    5.7400 C.3       6 GLP5        0.0000 
     22 CA         20.8310   21.5670   10.0210 C.3       6 GLP5        0.0000 
     23 CA          7.4860   21.3350    8.8190 C.3       6 GLP5        0.0000 
     24 CA         15.9340   16.3280    3.6730 C.3       6 GLP5        0.0000 
     25 CA         19.2560   22.6880    4.8430 C.3       6 GLP5        0.0000 
     26 CA         16.8230   16.6650    8.1500 C.3       6 GLP5        0.0000 
     27 N          12.9445   19.5640   10.7695 N.am      7 SEC1        0.0000 
     28 O          11.1340   17.8600    6.4805 O.2       8 ALC2        0.0000 
     29 CA          7.8555   16.0950    9.2830 C.3       9 GLC5        0.0000 
     30 CA         10.4975   15.9980   10.1245 C.3       9 GLC5        0.0000 
     31 CA          8.0485   17.8420    6.8545 C.3       9 GLC5        0.0000 
     32 CA         12.3295   22.8355    5.5980 C.3       9 GLC5        0.0000 
     33 CA          9.8235   20.0035    4.4740 C.3       9 GLC5        0.0000 
     34 CA         10.3080   22.2010    5.1615 C.3       9 GLC5        0.0000 
     35 CA         14.3425   18.1270    6.6075 C.3       9 GLC5        0.0000 
     36 CA         14.7375   21.0355    3.0065 C.3       9 GLC5        0.0000 
     37 CA         16.2470   18.1665    6.3720 C.3       9 GLC5        0.0000 
     38 CA         19.1250   21.2035    6.6730 C.3       9 GLC5        0.0000 
     39 CA         19.4225   20.8330    8.8135 C.3       9 GLC5        0.0000 
     40 CA          8.4400   19.5592    8.8592 C.3       9 GLC5        0.0000 
     41 CA         15.9005   18.2580    4.5107 C.3       9 GLC5        0.0000 
     42 CA         17.9213   21.4502    5.5985 C.3       9 GLC5        0.0000 
     43 CA         17.0800   18.4790    7.7402 C.3       9 GLC5        0.0000 
@<TRIPOS>BOND
@<TRIPOS>SUBSTRUCTURE
     1 SEL1        1 GROUP        1 Z    SEL  0     ROOT SEL Z 0
     2 ALL2        2 GROUP        1 Z    ALL  0     **** ALL Z 1
     3 GLL5        3 GROUP        1 Z    GLL  0     **** GLL Z 4
     4 SEP1       10 GROUP        1 Z    SEP  0     **** SEP Z 7
     5 ALP2       11 GROUP        1 Z    ALP  0     **** ALP Z 8
     6 GLP5       12 GROUP        1 Z    GLP  0     **** GLP Z 11
     7 SEC1       27 GROUP        1 Z    SEC  0     **** SEC Z 14
     8 ALC2       28 GROUP        1 Z    ALC  0     **** ALC Z 15
     9 GLC5       29 GROUP        1 Z    GLC  0     **** GLC Z 18
@<TRIPOS>SET

