@<TRIPOS>MOLECULE
1g50_EST_2_ligand
   44    47     1     0     0
SMALL
NO_CHARGES


@<TRIPOS>ATOM
     1 C1          35.1510    32.2180    46.8610 C.ar         1 EST1600   0.0000
     2 C2          34.5980    33.3960    46.2600 C.ar         1 EST1600   0.0000
     3 C3          35.2240    34.6860    46.5030 C.ar         1 EST1600   0.0000
     4 O3          34.7140    35.8400    45.9240 O.3          1 EST1600   0.0000
     5 C4          36.3690    34.7890    47.3360 C.ar         1 EST1600   0.0000
     6 C5          36.9360    33.6300    47.9510 C.ar         1 EST1600   0.0000
     7 C6          38.1740    33.8120    48.8530 C.3          1 EST1600   0.0000
     8 C7          38.7480    32.5200    49.5170 C.3          1 EST1600   0.0000
     9 C8          38.5280    31.2420    48.6740 C.3          1 EST1600   0.0000
    10 C9          36.9690    31.0360    48.3940 C.3          1 EST1600   0.0000
    11 C10         36.3310    32.2970    47.7130 C.ar         1 EST1600   0.0000
    12 C11         36.8000    29.7260    47.5770 C.3          1 EST1600   0.0000
    13 C12         37.4210    28.4760    48.2650 C.3          1 EST1600   0.0000
    14 C13         38.9230    28.6600    48.5560 C.3          1 EST1600   0.0000
    15 C14         39.1110    29.9680    49.3890 C.3          1 EST1600   0.0000
    16 C15         40.5930    29.8790    49.7660 C.3          1 EST1600   0.0000
    17 C16         40.7570    28.3850    50.1930 C.3          1 EST1600   0.0000
    18 C17         39.5320    27.6710    49.5660 C.3          1 EST1600   0.0000
    19 O17         39.9290    26.3970    49.0460 O.3          1 EST1600   0.0000
    20 C18         39.7380    28.6020    47.2060 C.3          1 EST1600   0.0000
    21 H1          34.7217    31.3305    46.6936 H            1 EST1600   0.0000
    22 H2          33.7875    33.3313    45.6778 H            1 EST1600   0.0000
    23 H3          33.9087    35.7892    45.3334 H            1 EST1600   0.0000
    24 H4          36.7845    35.6847    47.4946 H            1 EST1600   0.0000
    25 H5          37.9256    34.4456    49.5857 H            1 EST1600   0.0000
    26 H6          38.8996    34.2152    48.2954 H            1 EST1600   0.0000
    27 H7          38.3021    32.3950    50.4033 H            1 EST1600   0.0000
    28 H8          39.7309    32.6441    49.6529 H            1 EST1600   0.0000
    29 H9          38.9955    31.3557    47.7974 H            1 EST1600   0.0000
    30 H10         36.5163    30.9049    49.2760 H            1 EST1600   0.0000
    31 H11         37.2412    29.8491    46.6881 H            1 EST1600   0.0000
    32 H12         35.8228    29.5605    47.4441 H            1 EST1600   0.0000
    33 H13         37.3036    27.6855    47.6639 H            1 EST1600   0.0000
    34 H14         36.9431    28.3123    49.1281 H            1 EST1600   0.0000
    35 H15         38.5907    29.8485    50.2346 H            1 EST1600   0.0000
    36 H16         40.8090    30.4952    50.5234 H            1 EST1600   0.0000
    37 H17         41.1767    30.0954    48.9834 H            1 EST1600   0.0000
    38 H18         40.7462    28.2980    51.1892 H            1 EST1600   0.0000
    39 H19         41.6100    28.0057    49.8345 H            1 EST1600   0.0000
    40 H20         38.8603    27.5145    50.2901 H            1 EST1600   0.0000
    41 H21         40.3083    25.8392    49.7842 H            1 EST1600   0.0000
    42 H22         40.7118    28.7218    47.3991 H            1 EST1600   0.0000
    43 H23         39.5919    27.7158    46.7662 H            1 EST1600   0.0000
    44 H24         39.4267    29.3316    46.5971 H            1 EST1600   0.0000
@<TRIPOS>BOND
     1    1    2      ar
     2    1   11      ar
     3    2    3      ar
     4    3    4       1
     5    3    5      ar
     6    5    6      ar
     7    6    7       1
     8    6   11      ar
     9    7    8       1
    10    8    9       1
    11    9   10       1
    12    9   15       1
    13   10   11       1
    14   10   12       1
    15   12   13       1
    16   13   14       1
    17   14   15       1
    18   14   18       1
    19   14   20       1
    20   15   16       1
    21   16   17       1
    22   17   18       1
    23   18   19       1
    24    1   21       1
    25    2   22       1
    26    4   23       1
    27    5   24       1
    28    7   25       1
    29    7   26       1
    30    8   27       1
    31    8   28       1
    32    9   29       1
    33   10   30       1
    34   12   31       1
    35   12   32       1
    36   13   33       1
    37   13   34       1
    38   15   35       1
    39   16   36       1
    40   16   37       1
    41   17   38       1
    42   17   39       1
    43   18   40       1
    44   19   41       1
    45   20   42       1
    46   20   43       1
    47   20   44       1
@<TRIPOS>SUBSTRUCTURE
     1 EST1600     1 GROUP             4 B     EST     0 **** EST B1600
