@<TRIPOS>MOLECULE
3g1o_RF1_1_ligand
   44    46     1     0     0
SMALL
NO_CHARGES


@<TRIPOS>ATOM
     1 C14         32.8760    64.8610    14.0620 C.3          1 RF1237   0.0000
     2 C10         33.5550    65.2510    12.7570 C.3          1 RF1237   0.0000
     3 C15         34.9660    64.6910    12.7750 C.3          1 RF1237   0.0000
     4 C16         32.7520    64.6570    11.5980 C.3          1 RF1237   0.0000
     5 O2          33.5760    66.7480    12.7510 O.3          1 RF1237   0.0000
     6 C3          34.0200    67.5100    11.7040 C.2          1 RF1237   0.0000
     7 O3          34.5220    66.9830    10.7050 O.2          1 RF1237   0.0000
     8 N3          33.9080    68.8480    11.7620 N.am         1 RF1237   0.0000
     9 C7          33.3500    69.5010    12.9920 C.3          1 RF1237   0.0000
    10 C12         32.6770    70.8310    12.7140 C.3          1 RF1237   0.0000
    11 C6          34.4420    69.6180    10.6110 C.3          1 RF1237   0.0000
    12 C13         33.5620    70.8530    10.3330 C.3          1 RF1237   0.0000
    13 C5          33.4040    71.6550    11.6290 C.3          1 RF1237   0.0000
    14 C2          32.5900    72.9360    11.4430 C.2          1 RF1237   0.0000
    15 N1          32.5620    73.7580    10.4070 N.2          1 RF1237   0.0000
    16 O1          31.7990    73.4080    12.4450 O.2          1 RF1237   0.0000
    17 N2          31.2510    74.5840    11.9540 N.2          1 RF1237   0.0000
    18 C1          31.7190    74.7670    10.7440 C.2          1 RF1237   0.0000
    19 C4          31.3320    75.8570     9.9830 C.2          1 RF1237   0.0000
    20 C8          31.3940    76.0390     8.6640 C.2          1 RF1237   0.0000
    21 C11         30.9080    77.2230     8.2420 C.2          1 RF1237   0.0000
    22 C9          30.4450    78.0530     9.1950 C.2          1 RF1237   0.0000
    23 S1          30.6300    77.2210    10.6730 S.3          1 RF1237   0.0000
    24 H1          31.9428    65.2201    14.0725 H            1 RF1237   0.0000
    25 H2          32.8505    63.8643    14.1396 H            1 RF1237   0.0000
    26 H3          33.3886    65.2423    14.8314 H            1 RF1237   0.0000
    27 H4          35.4326    64.9355    11.9250 H            1 RF1237   0.0000
    28 H5          35.4665    65.0733    13.5518 H            1 RF1237   0.0000
    29 H6          34.9284    63.6953    12.8601 H            1 RF1237   0.0000
    30 H7          33.1852    64.9041    10.7312 H            1 RF1237   0.0000
    31 H8          32.7265    63.6612    11.6860 H            1 RF1237   0.0000
    32 H9          31.8195    65.0175    11.6193 H            1 RF1237   0.0000
    33 H10         34.0984    69.6531    13.6376 H            1 RF1237   0.0000
    34 H11         32.6772    68.8845    13.4009 H            1 RF1237   0.0000
    35 H12         32.6590    71.3630    13.5606 H            1 RF1237   0.0000
    36 H13         31.7405    70.6576    12.4093 H            1 RF1237   0.0000
    37 H14         34.4533    69.0327     9.8003 H            1 RF1237   0.0000
    38 H15         35.3732    69.9175    10.8189 H            1 RF1237   0.0000
    39 H16         32.6629    70.5581    10.0095 H            1 RF1237   0.0000
    40 H17         33.9961    71.4240     9.6362 H            1 RF1237   0.0000
    41 H18         34.3128    71.8992    11.9674 H            1 RF1237   0.0000
    42 H19         31.7698    75.3541     8.0397 H            1 RF1237   0.0000
    43 H20         30.8922    77.4714     7.2735 H            1 RF1237   0.0000
    44 H21         30.0692    78.9703     9.0636 H            1 RF1237   0.0000
@<TRIPOS>BOND
     1    1    2       1
     2    2    3       1
     3    2    4       1
     4    2    5       1
     5    5    6       1
     6    6    7       2
     7    6    8      am
     8    8    9       1
     9    8   11       1
    10    9   10       1
    11   10   13       1
    12   11   12       1
    13   12   13       1
    14   13   14       1
    15   14   15       2
    16   14   16       1
    17   15   18       1
    18   16   17       1
    19   17   18       2
    20   18   19       1
    21   19   20       2
    22   19   23       1
    23   20   21       1
    24   21   22       2
    25   22   23       1
    26    1   24       1
    27    1   25       1
    28    1   26       1
    29    3   27       1
    30    3   28       1
    31    3   29       1
    32    4   30       1
    33    4   31       1
    34    4   32       1
    35    9   33       1
    36    9   34       1
    37   10   35       1
    38   10   36       1
    39   11   37       1
    40   11   38       1
    41   12   39       1
    42   12   40       1
    43   13   41       1
    44   20   42       1
    45   21   43       1
    46   22   44       1
@<TRIPOS>SUBSTRUCTURE
     1 RF1237      1 GROUP             4 A     RF1     0 **** RF1 A 237
