2j0v_GDP_4_ligand
  -OEChem-08111718373D

 40 42  0     1  0  0  0  0  0999 V2000
   59.0265   11.9880  122.5229 H   0  0  0  0  0  0  0  0  0  0  0  0
   57.9852   15.9796  121.9646 H   0  0  0  0  0  0  0  0  0  0  0  0
   57.9645   14.0349  123.2235 H   0  0  0  0  0  0  0  0  0  0  0  0
   57.0145   14.9813  119.7140 H   0  0  0  0  0  0  0  0  0  0  0  0
   55.5046   13.1797  121.9622 H   0  0  0  0  0  0  0  0  0  0  0  0
   59.1432   14.0105  119.2813 H   0  0  0  0  0  0  0  0  0  0  0  0
   59.3272   15.4778  119.9740 H   0  0  0  0  0  0  0  0  0  0  0  0
   54.4117    7.7039  124.0073 H   0  0  0  0  0  0  0  0  0  0  0  0
   52.2042   10.1141  122.8694 H   0  0  0  0  0  0  0  0  0  0  0  0
   52.4018    8.5300  123.5415 H   0  0  0  0  0  0  0  0  0  0  0  0
   55.3601   15.6780  122.3016 H   0  0  0  0  0  0  0  0  0  0  0  0
   55.3879   14.1244  123.8581 H   0  0  0  0  0  0  0  0  0  0  0  0
   58.2100   11.4480  122.7270 C   0  0  0  0  0  0  0  0  0  0  0  0
   56.9120    9.7630  123.3210 C   0  0  0  0  0  0  0  0  0  0  0  0
   56.0690   10.8710  122.8430 C   0  0  0  0  0  0  0  0  0  0  0  0
   56.2120    8.5330  123.7560 C   0  0  0  0  0  0  0  0  0  0  0  0
   54.1540    9.5570  123.2150 C   0  0  0  0  0  0  0  0  0  0  0  0
   57.2500   15.3370  121.7490 C   0  0  1  0  0  0  0  0  0  0  0  0
   57.0850   14.2840  122.8180 C   0  0  2  0  0  0  0  0  0  0  0  0
   57.5240   14.5630  120.4660 C   0  0  1  0  0  0  0  0  0  0  0  0
   56.5030   13.1280  121.9860 C   0  0  2  0  0  0  0  0  0  0  0  0
   59.0050   14.5420  120.1170 C   0  0  1  0  0  0  0  0  0  0  0  0
   54.7060   10.7490  122.8170 N   0  0  0  0  0  0  0  0  0  0  0  0
   54.8930    8.5210  123.6900 N   0  0  0  0  0  0  0  0  0  0  0  0
   56.9370   11.8410  122.5140 N   0  0  0  0  0  0  0  0  0  0  0  0
   58.2030   10.1920  123.2670 N   0  0  0  0  0  0  0  0  0  0  0  0
   52.7990    9.3850  123.2080 N   0  0  0  0  0  0  0  0  0  0  0  0
   63.1640   15.0210  118.1550 O   0  5  0  0  0  0  0  0  0  0  0  0
   64.3410   14.2440  120.2020 O   0  5  0  0  0  0  0  0  0  0  0  0
   61.5520   15.7760  121.3680 O   0  5  0  0  0  0  0  0  0  0  0  0
   56.8080    7.5250  124.2220 O   0  0  0  0  0  0  0  0  0  0  0  0
   63.5140   12.5530  118.5890 O   0  0  0  0  0  0  0  0  0  0  0  0
   61.9100   13.5690  122.4800 O   0  0  0  0  0  0  0  0  0  0  0  0
   57.0360   13.2180  120.6820 O   0  0  0  0  0  0  0  0  0  0  0  0
   55.9910   15.9940  121.5930 O   0  0  0  0  0  0  0  0  0  0  0  0
   56.1680   14.7480  123.8080 O   0  0  0  0  0  0  0  0  0  0  0  0
   59.7490   13.9350  121.2050 O   0  0  0  0  0  0  0  0  0  0  0  0
   61.8550   13.7780  119.9330 O   0  0  0  0  0  0  0  0  0  0  0  0
   63.2780   13.9040  119.1770 P   0  0  0  0  0  0  0  0  0  0  0  0
   61.3210   14.3040  121.3360 P   0  0  1  0  0  0  0  0  0  0  0  0
  1 13  1  0  0  0  0
  2 18  1  0  0  0  0
  3 19  1  0  0  0  0
  4 20  1  0  0  0  0
  5 21  1  0  0  0  0
  6 22  1  0  0  0  0
  7 22  1  0  0  0  0
  8 24  1  0  0  0  0
  9 27  1  0  0  0  0
 10 27  1  0  0  0  0
 11 35  1  0  0  0  0
 12 36  1  0  0  0  0
 13 25  1  0  0  0  0
 13 26  2  0  0  0  0
 14 15  2  0  0  0  0
 14 16  1  0  0  0  0
 14 26  1  0  0  0  0
 15 23  1  0  0  0  0
 15 25  1  0  0  0  0
 16 24  1  0  0  0  0
 16 31  2  0  0  0  0
 17 23  2  0  0  0  0
 17 24  1  0  0  0  0
 17 27  1  0  0  0  0
 18 19  1  0  0  0  0
 18 20  1  0  0  0  0
 18 35  1  0  0  0  0
 19 21  1  0  0  0  0
 19 36  1  0  0  0  0
 20 22  1  0  0  0  0
 20 34  1  0  0  0  0
 21 25  1  0  0  0  0
 21 34  1  0  0  0  0
 22 37  1  0  0  0  0
 28 39  1  0  0  0  0
 29 39  1  0  0  0  0
 30 40  1  0  0  0  0
 32 39  2  0  0  0  0
 33 40  2  0  0  0  0
 37 40  1  0  0  0  0
 38 39  1  0  0  0  0
 38 40  1  0  0  0  0
M  CHG  3  28  -1  29  -1  30  -1
M  END
> <scpdb_id>
2j0v_4

$$$$
