#    Name: 5991
#    Modification time : Wed Aug  9 00:39:34 2017

@<TRIPOS>MOLECULE
5991
   41     0    15     0     0
SMALL
NO_CHARGES


@<TRIPOS>ATOM
      1 N          -1.4580   45.9760    6.9330 N.am      1 SEL1        0.0000 
      2 N           0.3100   44.4170    7.8540 N.am      1 SEL1        0.0000 
      3 N           0.8250   46.7230    7.2510 N.am      1 SEL1        0.0000 
      4 N          -1.5400   44.1250   10.6380 N.am      1 SEL1        0.0000 
      5 N          -0.8290   46.2140    9.2890 N.am      1 SEL1        0.0000 
      6 N          -6.9850   46.9240   16.6730 N.am      1 SEL1        0.0000 
      7 O          -7.6740   45.5160   14.9250 O.2       2 ALL2        0.0000 
      8 NZ         -1.4580   45.9760    6.9330 N.4       3 LYL3        0.0000 
      9 NZ          0.8250   46.7230    7.2510 N.4       3 LYL3        0.0000 
     10 CA          0.1180   47.1490   12.3160 C.3       4 GLL5        0.0000 
     11 CA         -1.0060   46.4910   15.7340 C.3       4 GLL5        0.0000 
     12 Zn          0.3100   44.4170    7.8540 Zn        5 ZIL7        0.0000 
     13 N          -3.5510   47.1090    9.3620 N.am      6 SEP1        0.0000 
     14 N          -1.5430   46.6450    4.3120 N.am      6 SEP1        0.0000 
     15 N          -3.6760   44.5530    8.2990 N.am      6 SEP1        0.0000 
     16 N          -2.0460   42.2060    8.3570 N.am      6 SEP1        0.0000 
     17 N           0.4180   49.3590    7.8350 N.am      6 SEP1        0.0000 
     18 N          -1.7640   43.0820   13.3480 N.am      6 SEP1        0.0000 
     19 N          -2.2250   41.4770   11.0180 N.am      6 SEP1        0.0000 
     20 N          -9.6250   46.9560   18.2040 N.am      6 SEP1        0.0000 
     21 O         -10.5520   45.0230   16.1290 O.2       7 ALP2        0.0000 
     22 NZ         -1.5430   46.6450    4.3120 N.4       8 LYP3        0.0000 
     23 CA          0.7200   50.8280    9.8180 C.3       9 GLP5        0.0000 
     24 CA         -2.3270   43.9580   18.8130 C.3       9 GLP5        0.0000 
     25 Zn          1.6880   42.9380    7.1170 Zn       10 ZIP7        0.0000 
     26 N          -2.5045   46.5425    8.1475 N.am     11 SEC1        0.0000 
     27 N          -1.5005   46.3105    5.6225 N.am     11 SEC1        0.0000 
     28 N          -2.5670   45.2645    7.6160 N.am     11 SEC1        0.0000 
     29 N          -0.8680   43.3115    8.1055 N.am     11 SEC1        0.0000 
     30 N           0.6215   48.0410    7.5430 N.am     11 SEC1        0.0000 
     31 N          -1.6520   43.6035   11.9930 N.am     11 SEC1        0.0000 
     32 N          -1.8825   42.8010   10.8280 N.am     11 SEC1        0.0000 
     33 N          -2.1900   46.6615    9.3255 N.am     11 SEC1        0.0000 
     34 N          -2.2525   45.3835    8.7940 N.am     11 SEC1        0.0000 
     35 N          -8.3050   46.9400   17.4385 N.am     11 SEC1        0.0000 
     36 O          -9.1130   45.2695   15.5270 O.2      12 ALC2        0.0000 
     37 NZ         -1.5005   46.3105    5.6225 N.4      13 LYC3        0.0000 
     38 NZ         -0.3590   46.6840    5.7815 N.4      13 LYC3        0.0000 
     39 CA          0.4190   48.9885   11.0670 C.3      14 GLC5        0.0000 
     40 CA         -1.6665   45.2245   17.2735 C.3      14 GLC5        0.0000 
     41 Zn          0.9990   43.6775    7.4855 Zn       15 ZIC7        0.0000 
@<TRIPOS>BOND
@<TRIPOS>SUBSTRUCTURE
     1 SEL1        1 GROUP        1 Z    SEL  0     ROOT SEL Z 0
     2 ALL2        7 GROUP        1 Z    ALL  0     **** ALL Z 1
     3 LYL3        8 GROUP        1 Z    LYL  0     **** LYL Z 2
     4 GLL5       10 GROUP        1 Z    GLL  0     **** GLL Z 4
     5 ZIL7       12 GROUP        1 Z    ZIL  0     **** ZIL Z 5
     6 SEP1       13 GROUP        1 Z    SEP  0     **** SEP Z 7
     7 ALP2       21 GROUP        1 Z    ALP  0     **** ALP Z 8
     8 LYP3       22 GROUP        1 Z    LYP  0     **** LYP Z 9
     9 GLP5       23 GROUP        1 Z    GLP  0     **** GLP Z 11
    10 ZIP7       25 GROUP        1 Z    ZIP  0     **** ZIP Z 12
    11 SEC1       26 GROUP        1 Z    SEC  0     **** SEC Z 14
    12 ALC2       36 GROUP        1 Z    ALC  0     **** ALC Z 15
    13 LYC3       37 GROUP        1 Z    LYC  0     **** LYC Z 16
    14 GLC5       39 GROUP        1 Z    GLC  0     **** GLC Z 18
    15 ZIC7       41 GROUP        1 Z    ZIC  0     **** ZIC Z 19
@<TRIPOS>SET

