@<TRIPOS>MOLECULE
4y29_CTI_1_ligand
   44    48     1     0     0
SMALL
NO_CHARGES


@<TRIPOS>ATOM
     1 C1           2.9130    -4.0920    24.6990 C.ar         1 CTI501   0.0000
     2 C2           3.5210    -3.2160    23.7770 C.ar         1 CTI501   0.0000
     3 C3           2.8090    -2.0140    23.4410 C.ar         1 CTI501   0.0000
     4 C4           1.5650    -1.7060    23.9850 C.ar         1 CTI501   0.0000
     5 C5           4.7900    -3.4880    23.1800 C.ar         1 CTI501   0.0000
     6 C6           5.2470    -2.5040    22.2910 C.ar         1 CTI501   0.0000
     7 C7           4.5290    -1.3550    21.9860 C.ar         1 CTI501   0.0000
     8 C8           3.2980    -1.0700    22.5510 C.ar         1 CTI501   0.0000
     9 N9           5.5740    -4.5800    23.4080 N.ar         1 CTI501   1.0000
    10 C10          6.4600    -2.6150    21.6400 C.ar         1 CTI501   0.0000
    11 C11          7.2910    -3.7210    21.8850 C.ar         1 CTI501   0.0000
    12 C12          6.8430    -4.7500    22.7500 C.ar         1 CTI501   0.0000
    13 C13          5.1720    -5.6650    24.3570 C.3          1 CTI501   0.0000
    14 C14          8.8130    -2.6920    20.3630 C.ar         1 CTI501   0.0000
    15 C15          7.9820    -1.5870    20.1550 C.ar         1 CTI501   0.0000
    16 C16          6.7540    -1.5520    20.7880 C.ar         1 CTI501   0.0000
    17 C17          8.5290    -3.7870    21.2400 C.ar         1 CTI501   0.0000
    18 O18          9.3540    -4.9940    21.4320 O.3          1 CTI501   0.0000
    19 C19         10.8130    -5.2580    21.5340 C.3          1 CTI501   0.0000
    20 O20          9.9690    -2.6680    19.6310 O.3          1 CTI501   0.0000
    21 C21          9.9000    -1.3340    18.9720 C.3          1 CTI501   0.0000
    22 C22          1.7110    -3.7470    25.1960 C.ar         1 CTI501   0.0000
    23 C23          1.0590    -2.6030    24.8410 C.ar         1 CTI501   0.0000
    24 O24          0.9560    -4.4580    26.1080 O.3          1 CTI501   0.0000
    25 C25         -0.4540    -3.9090    25.9270 C.3          1 CTI501   0.0000
    26 O26         -0.1520    -2.5010    25.4950 O.3          1 CTI501   0.0000
    27 H1           3.3606    -4.9426    24.9749 H            1 CTI501   0.0000
    28 H2           1.0781    -0.8647    23.7504 H            1 CTI501   0.0000
    29 H3           4.9174    -0.7068    21.3311 H            1 CTI501   0.0000
    30 H4           2.7929    -0.2354    22.3310 H            1 CTI501   0.0000
    31 H5           7.3932    -5.5716    22.8992 H            1 CTI501   0.0000
    32 H6           5.8820    -6.3688    24.3787 H            1 CTI501   0.0000
    33 H7           5.0556    -5.2806    25.2728 H            1 CTI501   0.0000
    34 H8           4.3098    -6.0706    24.0536 H            1 CTI501   0.0000
    35 H9           8.2705    -0.8369    19.5600 H            1 CTI501   0.0000
    36 H10          6.1090    -0.8019    20.6421 H            1 CTI501   0.0000
    37 H11         10.9661    -6.2374    21.6656 H            1 CTI501   0.0000
    38 H12         11.2653    -4.9599    20.6934 H            1 CTI501   0.0000
    39 H13         11.1893    -4.7544    22.3116 H            1 CTI501   0.0000
    40 H14         10.7093    -1.2028    18.3994 H            1 CTI501   0.0000
    41 H15          9.0783    -1.2848    18.4042 H            1 CTI501   0.0000
    42 H16          9.8661    -0.6187    19.6700 H            1 CTI501   0.0000
    43 H17         -0.9699    -3.9290    26.7834 H            1 CTI501   0.0000
    44 H18         -0.9570    -4.4104    25.2231 H            1 CTI501   0.0000
@<TRIPOS>BOND
     1    1    2      ar
     2    1   22      ar
     3    2    3      ar
     4    2    5      ar
     5    3    4      ar
     6    3    8      ar
     7    4   23      ar
     8    5    6      ar
     9    5    9      ar
    10    6    7      ar
    11    6   10      ar
    12    7    8      ar
    13    9   12      ar
    14    9   13       1
    15   10   11      ar
    16   10   16      ar
    17   11   12      ar
    18   11   17      ar
    19   14   15      ar
    20   14   17      ar
    21   14   20       1
    22   15   16      ar
    23   17   18       1
    24   18   19       1
    25   20   21       1
    26   22   23      ar
    27   22   24       1
    28   23   26       1
    29   24   25       1
    30   25   26       1
    31    1   27       1
    32    4   28       1
    33    7   29       1
    34    8   30       1
    35   12   31       1
    36   13   32       1
    37   13   33       1
    38   13   34       1
    39   15   35       1
    40   16   36       1
    41   19   37       1
    42   19   38       1
    43   19   39       1
    44   21   40       1
    45   21   41       1
    46   21   42       1
    47   25   43       1
    48   25   44       1
@<TRIPOS>SUBSTRUCTURE
     1 CTI501      1 GROUP             4 A     CTI     0 **** CTI A 501
