@<TRIPOS>MOLECULE
3bqd_DAY_1_ligand
   74    79     1     0     0
SMALL
NO_CHARGES


@<TRIPOS>ATOM
     1 C1          38.1420    31.6110     9.9440 C.2          1 DAY301   0.0000
     2 O1          38.3530    28.4230    11.2960 O.3          1 DAY301   0.0000
     3 C2          37.8450    32.8480     9.5150 C.2          1 DAY301   0.0000
     4 C3          38.2240    33.2600     8.1260 C.2          1 DAY301   0.0000
     5 C4          39.0030    32.2150     7.2770 C.2          1 DAY301   0.0000
     6 C5          39.3060    30.9660     7.7730 C.2          1 DAY301   0.0000
     7 C6          40.4680    30.2300     6.9850 C.2          1 DAY301   0.0000
     8 C7          41.1150    29.0380     7.6490 C.3          1 DAY301   0.0000
     9 C8          40.6080    28.5240     9.0420 C.3          1 DAY301   0.0000
    10 C9          40.0170    29.7340     9.9410 C.3          1 DAY301   0.0000
    11 C10         38.8500    30.4950     9.1820 C.3          1 DAY301   0.0000
    12 C11         39.5070    29.2590    11.3730 C.3          1 DAY301   0.0000
    13 C12         40.5510    28.4780    12.1480 C.3          1 DAY301   0.0000
    14 C13         41.1880    27.2840    11.3080 C.3          1 DAY301   0.0000
    15 C14         41.7200    27.8560     9.9030 C.3          1 DAY301   0.0000
    16 C15         42.5320    26.6100     9.3350 C.3          1 DAY301   0.0000
    17 C16         43.0420    25.9020    10.5710 C.3          1 DAY301   0.0000
    18 C17         42.5010    26.7130    11.8330 C.3          1 DAY301   0.0000
    19 C18         40.0960    26.1200    10.9890 C.3          1 DAY301   0.0000
    20 C19         37.5760    29.6320     8.7720 C.3          1 DAY301   0.0000
    21 C20         42.2520    25.7520    13.0780 C.2          1 DAY301   0.0000
    22 C21         41.7310    26.2440    14.4560 C.3          1 DAY301   0.0000
    23 N1          37.5740    34.5120     7.7400 N.pl3        1 DAY301   0.0000
    24 O2          43.4710    27.7710    12.1700 O.3          1 DAY301   0.0000
    25 O3          42.4750    24.5520    12.9800 O.2          1 DAY301   0.0000
    26 O4          41.2720    25.1960    15.2950 O.3          1 DAY301   0.0000
    27 C22         37.1130    34.0970    10.2160 C.3          1 DAY301   0.0000
    28 N2          37.2200    34.9760     8.9150 N.3          1 DAY301   0.0000
    29 C23         37.7090    34.5830     5.4750 C.ar         1 DAY301   0.0000
    30 C24         37.5950    35.2410     6.7120 C.ar         1 DAY301   0.0000
    31 C25         37.6920    35.1850     4.2520 C.ar         1 DAY301   0.0000
    32 C26         37.5650    36.6330     3.9300 C.ar         1 DAY301   0.0000
    33 C27         37.4310    36.6720     6.5250 C.ar         1 DAY301   0.0000
    34 C29         37.4230    37.4170     5.1480 C.ar         1 DAY301   0.0000
    35 C28         40.9330    30.6630     5.7050 C.3          1 DAY301   0.0000
    36 C30         44.5620    25.9160    10.4890 C.3          1 DAY301   0.0000
    37 H1          37.8645    31.3941    10.8799 H            1 DAY301   0.0000
    38 H2          38.3530    27.7832    12.0646 H            1 DAY301   0.0000
    39 H3          39.2905    32.4554     6.3499 H            1 DAY301   0.0000
    40 H4          42.0823    29.2647     7.7630 H            1 DAY301   0.0000
    41 H5          41.0249    28.2724     7.0120 H            1 DAY301   0.0000
    42 H6          39.8797    27.8561     8.8889 H            1 DAY301   0.0000
    43 H7          40.7579    30.3894    10.0877 H            1 DAY301   0.0000
    44 H8          39.2681    30.0719    11.9041 H            1 DAY301   0.0000
    45 H9          40.1211    28.0974    12.9667 H            1 DAY301   0.0000
    46 H10         41.2829    29.1044    12.4164 H            1 DAY301   0.0000
    47 H11         42.3903    28.5674    10.1143 H            1 DAY301   0.0000
    48 H12         43.2927    26.9144     8.7617 H            1 DAY301   0.0000
    49 H13         41.9340    26.0096     8.8041 H            1 DAY301   0.0000
    50 H14         42.7053    24.9607    10.5943 H            1 DAY301   0.0000
    51 H15         40.5312    25.3900    10.4621 H            1 DAY301   0.0000
    52 H16         39.7454    25.7474    11.8482 H            1 DAY301   0.0000
    53 H17         39.3405    26.5075    10.4607 H            1 DAY301   0.0000
    54 H18         37.8695    28.8329     8.2474 H            1 DAY301   0.0000
    55 H19         37.0973    29.3317     9.5970 H            1 DAY301   0.0000
    56 H20         36.9612    30.1895     8.2142 H            1 DAY301   0.0000
    57 H21         40.9743    26.8788    14.2999 H            1 DAY301   0.0000
    58 H22         42.4751    26.7209    14.9237 H            1 DAY301   0.0000
    59 H23         44.0616    27.4572    12.9135 H            1 DAY301   0.0000
    60 H24         41.8085    25.1853    16.1388 H            1 DAY301   0.0000
    61 H25         37.6183    34.4712    10.9936 H            1 DAY301   0.0000
    62 H26         36.1712    33.9047    10.4919 H            1 DAY301   0.0000
    63 H27         37.8775    35.6982     9.1299 H            1 DAY301   0.0000
    64 H28         37.8113    33.5884     5.4938 H            1 DAY301   0.0000
    65 H29         37.7761    34.5722     3.4663 H            1 DAY301   0.0000
    66 H30         37.5758    37.0139     3.0055 H            1 DAY301   0.0000
    67 H31         37.3130    37.2295     7.3467 H            1 DAY301   0.0000
    68 H32         37.3224    38.4110     5.1062 H            1 DAY301   0.0000
    69 H33         41.6661    30.0579     5.3945 H            1 DAY301   0.0000
    70 H34         40.1783    30.6359     5.0495 H            1 DAY301   0.0000
    71 H35         41.2800    31.5982     5.7753 H            1 DAY301   0.0000
    72 H36         44.9433    25.4557    11.2907 H            1 DAY301   0.0000
    73 H37         44.8555    25.4397     9.6601 H            1 DAY301   0.0000
    74 H38         44.8857    26.8618    10.4623 H            1 DAY301   0.0000
@<TRIPOS>BOND
     1    1    3       2
     2    1   11       1
     3    2   12       1
     4    3    4       1
     5    3   27       1
     6    4    5       2
     7    4   23       1
     8    5    6       1
     9    6    7       2
    10    6   11       1
    11    7    8       1
    12    7   35       1
    13    8    9       1
    14    9   10       1
    15    9   15       1
    16   10   11       1
    17   10   12       1
    18   11   20       1
    19   12   13       1
    20   13   14       1
    21   14   15       1
    22   14   18       1
    23   14   19       1
    24   15   16       1
    25   16   17       1
    26   17   18       1
    27   17   36       1
    28   18   21       1
    29   18   24       1
    30   21   22       1
    31   21   25       2
    32   22   26       1
    33   23   28       1
    34   23   30       1
    35   27   28       1
    36   29   30      ar
    37   29   31      ar
    38   30   33      ar
    39   31   32      ar
    40   32   34      ar
    41   33   34      ar
    42    1   37       1
    43    2   38       1
    44    5   39       1
    45    8   40       1
    46    8   41       1
    47    9   42       1
    48   10   43       1
    49   12   44       1
    50   13   45       1
    51   13   46       1
    52   15   47       1
    53   16   48       1
    54   16   49       1
    55   17   50       1
    56   19   51       1
    57   19   52       1
    58   19   53       1
    59   20   54       1
    60   20   55       1
    61   20   56       1
    62   22   57       1
    63   22   58       1
    64   24   59       1
    65   26   60       1
    66   27   61       1
    67   27   62       1
    68   28   63       1
    69   29   64       1
    70   31   65       1
    71   32   66       1
    72   33   67       1
    73   34   68       1
    74   35   69       1
    75   35   70       1
    76   35   71       1
    77   36   72       1
    78   36   73       1
    79   36   74       1
@<TRIPOS>SUBSTRUCTURE
     1 DAY301      1 GROUP             4 A     DAY     0 **** DAY A 301
