3bqd_DAY_1_ligand
  -OEChem-08111718373D

 74 79  0     1  0  0  0  0  0999 V2000
   37.5758   37.0139    3.0055 H   0  0  0  0  0  0  0  0  0  0  0  0
   37.7761   34.5722    3.4663 H   0  0  0  0  0  0  0  0  0  0  0  0
   37.3224   38.4110    5.1062 H   0  0  0  0  0  0  0  0  0  0  0  0
   37.8113   33.5884    5.4938 H   0  0  0  0  0  0  0  0  0  0  0  0
   37.3130   37.2295    7.3467 H   0  0  0  0  0  0  0  0  0  0  0  0
   39.2905   32.4554    6.3499 H   0  0  0  0  0  0  0  0  0  0  0  0
   37.8645   31.3941   10.8799 H   0  0  0  0  0  0  0  0  0  0  0  0
   37.6183   34.4712   10.9936 H   0  0  0  0  0  0  0  0  0  0  0  0
   36.1712   33.9047   10.4919 H   0  0  0  0  0  0  0  0  0  0  0  0
   42.0823   29.2647    7.7630 H   0  0  0  0  0  0  0  0  0  0  0  0
   41.0249   28.2724    7.0120 H   0  0  0  0  0  0  0  0  0  0  0  0
   43.2927   26.9144    8.7617 H   0  0  0  0  0  0  0  0  0  0  0  0
   41.9340   26.0096    8.8041 H   0  0  0  0  0  0  0  0  0  0  0  0
   40.1211   28.0974   12.9667 H   0  0  0  0  0  0  0  0  0  0  0  0
   41.2829   29.1044   12.4164 H   0  0  0  0  0  0  0  0  0  0  0  0
   39.8797   27.8561    8.8889 H   0  0  0  0  0  0  0  0  0  0  0  0
   42.3903   28.5674   10.1143 H   0  0  0  0  0  0  0  0  0  0  0  0
   40.7579   30.3894   10.0877 H   0  0  0  0  0  0  0  0  0  0  0  0
   42.7053   24.9607   10.5943 H   0  0  0  0  0  0  0  0  0  0  0  0
   39.2681   30.0719   11.9041 H   0  0  0  0  0  0  0  0  0  0  0  0
   41.6661   30.0579    5.3945 H   0  0  0  0  0  0  0  0  0  0  0  0
   40.1783   30.6359    5.0495 H   0  0  0  0  0  0  0  0  0  0  0  0
   41.2800   31.5982    5.7753 H   0  0  0  0  0  0  0  0  0  0  0  0
   44.9433   25.4557   11.2907 H   0  0  0  0  0  0  0  0  0  0  0  0
   44.8555   25.4397    9.6601 H   0  0  0  0  0  0  0  0  0  0  0  0
   44.8857   26.8618   10.4623 H   0  0  0  0  0  0  0  0  0  0  0  0
   37.8695   28.8329    8.2474 H   0  0  0  0  0  0  0  0  0  0  0  0
   37.0973   29.3317    9.5970 H   0  0  0  0  0  0  0  0  0  0  0  0
   36.9612   30.1895    8.2142 H   0  0  0  0  0  0  0  0  0  0  0  0
   40.5312   25.3900   10.4621 H   0  0  0  0  0  0  0  0  0  0  0  0
   39.7454   25.7474   11.8482 H   0  0  0  0  0  0  0  0  0  0  0  0
   39.3405   26.5075   10.4607 H   0  0  0  0  0  0  0  0  0  0  0  0
   40.9743   26.8788   14.2999 H   0  0  0  0  0  0  0  0  0  0  0  0
   42.4751   26.7209   14.9237 H   0  0  0  0  0  0  0  0  0  0  0  0
   37.8775   35.6982    9.1299 H   0  0  0  0  0  0  0  0  0  0  0  0
   38.3530   27.7832   12.0646 H   0  0  0  0  0  0  0  0  0  0  0  0
   44.0616   27.4572   12.9135 H   0  0  0  0  0  0  0  0  0  0  0  0
   41.8085   25.1853   16.1388 H   0  0  0  0  0  0  0  0  0  0  0  0
   37.5650   36.6330    3.9300 C   0  0  0  0  0  0  0  0  0  0  0  0
   37.6920   35.1850    4.2520 C   0  0  0  0  0  0  0  0  0  0  0  0
   37.4230   37.4170    5.1480 C   0  0  0  0  0  0  0  0  0  0  0  0
   37.7090   34.5830    5.4750 C   0  0  0  0  0  0  0  0  0  0  0  0
   37.4310   36.6720    6.5250 C   0  0  0  0  0  0  0  0  0  0  0  0
   37.5950   35.2410    6.7120 C   0  0  0  0  0  0  0  0  0  0  0  0
   39.0030   32.2150    7.2770 C   0  0  0  0  0  0  0  0  0  0  0  0
   38.1420   31.6110    9.9440 C   0  0  0  0  0  0  0  0  0  0  0  0
   39.3060   30.9660    7.7730 C   0  0  0  0  0  0  0  0  0  0  0  0
   37.8450   32.8480    9.5150 C   0  0  0  0  0  0  0  0  0  0  0  0
   38.2240   33.2600    8.1260 C   0  0  0  0  0  0  0  0  0  0  0  0
   40.4680   30.2300    6.9850 C   0  0  0  0  0  0  0  0  0  0  0  0
   42.2520   25.7520   13.0780 C   0  0  0  0  0  0  0  0  0  0  0  0
   37.1130   34.0970   10.2160 C   0  0  2  0  0  0  0  0  0  0  0  0
   41.1150   29.0380    7.6490 C   0  0  2  0  0  0  0  0  0  0  0  0
   42.5320   26.6100    9.3350 C   0  0  2  0  0  0  0  0  0  0  0  0
   40.5510   28.4780   12.1480 C   0  0  2  0  0  0  0  0  0  0  0  0
   40.6080   28.5240    9.0420 C   0  0  1  0  0  0  0  0  0  0  0  0
   41.7200   27.8560    9.9030 C   0  0  1  0  0  0  0  0  0  0  0  0
   40.0170   29.7340    9.9410 C   0  0  2  0  0  0  0  0  0  0  0  0
   43.0420   25.9020   10.5710 C   0  0  2  0  0  0  0  0  0  0  0  0
   39.5070   29.2590   11.3730 C   0  0  1  0  0  0  0  0  0  0  0  0
   38.8500   30.4950    9.1820 C   0  0  1  0  0  0  0  0  0  0  0  0
   42.5010   26.7130   11.8330 C   0  0  1  0  0  0  0  0  0  0  0  0
   41.1880   27.2840   11.3080 C   0  0  1  0  0  0  0  0  0  0  0  0
   40.9330   30.6630    5.7050 C   0  0  0  0  0  0  0  0  0  0  0  0
   44.5620   25.9160   10.4890 C   0  0  0  0  0  0  0  0  0  0  0  0
   37.5760   29.6320    8.7720 C   0  0  0  0  0  0  0  0  0  0  0  0
   40.0960   26.1200   10.9890 C   0  0  0  0  0  0  0  0  0  0  0  0
   41.7310   26.2440   14.4560 C   0  0  2  0  0  0  0  0  0  0  0  0
   37.2200   34.9760    8.9150 N   0  0  2  0  0  0  0  0  0  0  0  0
   37.5740   34.5120    7.7400 N   0  0  0  0  0  0  0  0  0  0  0  0
   42.4750   24.5520   12.9800 O   0  0  0  0  0  0  0  0  0  0  0  0
   38.3530   28.4230   11.2960 O   0  0  0  0  0  0  0  0  0  0  0  0
   43.4710   27.7710   12.1700 O   0  0  0  0  0  0  0  0  0  0  0  0
   41.2720   25.1960   15.2950 O   0  0  0  0  0  0  0  0  0  0  0  0
  1 39  1  0  0  0  0
  2 40  1  0  0  0  0
  3 41  1  0  0  0  0
  4 42  1  0  0  0  0
  5 43  1  0  0  0  0
  6 45  1  0  0  0  0
  7 46  1  0  0  0  0
  8 52  1  0  0  0  0
  9 52  1  0  0  0  0
 10 53  1  0  0  0  0
 11 53  1  0  0  0  0
 12 54  1  0  0  0  0
 13 54  1  0  0  0  0
 14 55  1  0  0  0  0
 15 55  1  0  0  0  0
 16 56  1  0  0  0  0
 17 57  1  0  0  0  0
 18 58  1  0  0  0  0
 19 59  1  0  0  0  0
 20 60  1  0  0  0  0
 21 64  1  0  0  0  0
 22 64  1  0  0  0  0
 23 64  1  0  0  0  0
 24 65  1  0  0  0  0
 25 65  1  0  0  0  0
 26 65  1  0  0  0  0
 27 66  1  0  0  0  0
 28 66  1  0  0  0  0
 29 66  1  0  0  0  0
 30 67  1  0  0  0  0
 31 67  1  0  0  0  0
 32 67  1  0  0  0  0
 33 68  1  0  0  0  0
 34 68  1  0  0  0  0
 35 69  1  0  0  0  0
 36 72  1  0  0  0  0
 37 73  1  0  0  0  0
 38 74  1  0  0  0  0
 39 40  2  0  0  0  0
 39 41  1  0  0  0  0
 40 42  1  0  0  0  0
 41 43  2  0  0  0  0
 42 44  2  0  0  0  0
 43 44  1  0  0  0  0
 44 70  1  0  0  0  0
 45 47  1  0  0  0  0
 45 49  2  0  0  0  0
 46 48  2  0  0  0  0
 46 61  1  0  0  0  0
 47 50  2  0  0  0  0
 47 61  1  0  0  0  0
 48 49  1  0  0  0  0
 48 52  1  0  0  0  0
 49 70  1  0  0  0  0
 50 53  1  0  0  0  0
 50 64  1  0  0  0  0
 51 62  1  0  0  0  0
 51 68  1  0  0  0  0
 51 71  2  0  0  0  0
 52 69  1  0  0  0  0
 53 56  1  0  0  0  0
 54 57  1  0  0  0  0
 54 59  1  0  0  0  0
 55 60  1  0  0  0  0
 55 63  1  0  0  0  0
 56 57  1  0  0  0  0
 56 58  1  0  0  0  0
 57 63  1  0  0  0  0
 58 60  1  0  0  0  0
 58 61  1  0  0  0  0
 59 62  1  0  0  0  0
 59 65  1  0  0  0  0
 60 72  1  0  0  0  0
 61 66  1  0  0  0  0
 62 63  1  0  0  0  0
 62 73  1  0  0  0  0
 63 67  1  0  0  0  0
 68 74  1  0  0  0  0
 69 70  1  0  0  0  0
M  END
> <scpdb_id>
3bqd_1

$$$$
