#    Name: 50333
#    Modification time : Tue Aug  8 19:00:36 2017

@<TRIPOS>MOLECULE
50333
   51     0     3     0     0
SMALL
NO_CHARGES


@<TRIPOS>ATOM
      1 CA          7.9820   -1.5870   20.1550 C.3       1 GLL5        0.0000 
      2 CA         10.8130   -5.2580   21.5340 C.3       1 GLL5        0.0000 
      3 CA          9.9000   -1.3340   18.9720 C.3       1 GLL5        0.0000 
      4 CA         -0.4540   -3.9090   25.9270 C.3       1 GLL5        0.0000 
      5 CA          2.9130   -4.0920   24.6990 C.3       1 GLL5        0.0000 
      6 CA          1.7110   -3.7470   25.1960 C.3       1 GLL5        0.0000 
      7 CA          1.5650   -1.7060   23.9850 C.3       1 GLL5        0.0000 
      8 CA          1.0590   -2.6030   24.8410 C.3       1 GLL5        0.0000 
      9 CA          8.5290   -3.7870   21.2400 C.3       1 GLL5        0.0000 
     10 CA          5.2470   -2.5040   22.2910 C.3       1 GLL5        0.0000 
     11 CA          3.5210   -3.2160   23.7770 C.3       1 GLL5        0.0000 
     12 CA          8.8130   -2.6920   20.3630 C.3       1 GLL5        0.0000 
     13 CA          2.8090   -2.0140   23.4410 C.3       1 GLL5        0.0000 
     14 CA          7.5080   -0.0460   16.2440 C.3       2 GLP5        0.0000 
     15 CA         11.6840   -1.3990   22.3250 C.3       2 GLP5        0.0000 
     16 CA          7.8490   -5.7600   18.2280 C.3       2 GLP5        0.0000 
     17 CA         12.2020   -6.7830   18.6950 C.3       2 GLP5        0.0000 
     18 CA          9.2290   -7.2970   24.7210 C.3       2 GLP5        0.0000 
     19 CA         12.1940    1.7940   17.4990 C.3       2 GLP5        0.0000 
     20 CA          1.9760   -7.5600   26.0500 C.3       2 GLP5        0.0000 
     21 CA         -0.9630   -6.0440   28.9120 C.3       2 GLP5        0.0000 
     22 CA         -4.0480   -2.8500   28.0230 C.3       2 GLP5        0.0000 
     23 CA         -1.9630   -2.6030   22.1810 C.3       2 GLP5        0.0000 
     24 CA          4.9190   -1.7280   25.5060 C.3       2 GLP5        0.0000 
     25 CA          3.3490   -4.2330   28.5470 C.3       2 GLP5        0.0000 
     26 CA          5.4350   -0.3230   24.6690 C.3       2 GLP5        0.0000 
     27 CA          1.2970   -5.7830   21.9430 C.3       2 GLP5        0.0000 
     28 CA          2.3110   -4.9490   20.6660 C.3       2 GLP5        0.0000 
     29 CA          7.7450   -0.8165   18.1995 C.3       3 GLC5        0.0000 
     30 CA         11.2485   -3.3285   21.9295 C.3       3 GLC5        0.0000 
     31 CA          9.3310   -5.5090   19.8810 C.3       3 GLC5        0.0000 
     32 CA         11.5075   -6.0205   20.1145 C.3       3 GLC5        0.0000 
     33 CA         10.0210   -6.2775   23.1275 C.3       3 GLC5        0.0000 
     34 CA         10.7920   -1.3665   20.6485 C.3       3 GLC5        0.0000 
     35 CA         11.0470    0.2300   18.2355 C.3       3 GLC5        0.0000 
     36 CA          8.7040   -0.6900   17.6080 C.3       3 GLC5        0.0000 
     37 CA          0.7610   -5.7345   25.9885 C.3       3 GLC5        0.0000 
     38 CA         -0.7085   -4.9765   27.4195 C.3       3 GLC5        0.0000 
     39 CA         -2.2510   -3.3795   26.9750 C.3       3 GLC5        0.0000 
     40 CA         -1.2085   -3.2560   24.0540 C.3       3 GLC5        0.0000 
     41 CA          3.6155   -2.8237   25.2267 C.3       3 GLC5        0.0000 
     42 CA          2.8305   -4.0762   26.7473 C.3       3 GLC5        0.0000 
     43 CA          2.1440   -5.7397   25.4988 C.3       3 GLC5        0.0000 
     44 CA          3.1155   -1.9413   24.9595 C.3       3 GLC5        0.0000 
     45 CA         -0.3255   -2.3788   23.2970 C.3       3 GLC5        0.0000 
     46 CA          8.1052   -4.4915   19.5954 C.3       3 GLC5        0.0000 
     47 CA          5.8694   -1.1894   23.0229 C.3       3 GLC5        0.0000 
     48 CA          1.4912   -4.5221   23.4186 C.3       3 GLC5        0.0000 
     49 CA          2.9866   -3.3101   21.6892 C.3       3 GLC5        0.0000 
     50 CA         10.1091   -2.0442   21.4276 C.3       3 GLC5        0.0000 
     51 CA          4.4661   -1.5142   24.0340 C.3       3 GLC5        0.0000 
@<TRIPOS>BOND
@<TRIPOS>SUBSTRUCTURE
     1 GLL5        1 GROUP        1 Z    GLL  0     ROOT GLL Z 4
     2 GLP5       14 GROUP        1 Z    GLP  0     **** GLP Z 11
     3 GLC5       29 GROUP        1 Z    GLC  0     **** GLC Z 18
@<TRIPOS>SET

