4y29_CTI_1_ligand
  -OEChem-08111718373D

 44 48  0     1  0  0  0  0  0999 V2000
    2.7929   -0.2354   22.3310 H   0  0  0  0  0  0  0  0  0  0  0  0
    4.9174   -0.7068   21.3311 H   0  0  0  0  0  0  0  0  0  0  0  0
    6.1090   -0.8019   20.6421 H   0  0  0  0  0  0  0  0  0  0  0  0
    8.2705   -0.8369   19.5600 H   0  0  0  0  0  0  0  0  0  0  0  0
    1.0781   -0.8647   23.7504 H   0  0  0  0  0  0  0  0  0  0  0  0
    3.3606   -4.9426   24.9749 H   0  0  0  0  0  0  0  0  0  0  0  0
    7.3932   -5.5716   22.8992 H   0  0  0  0  0  0  0  0  0  0  0  0
   -0.9699   -3.9290   26.7834 H   0  0  0  0  0  0  0  0  0  0  0  0
   -0.9570   -4.4104   25.2231 H   0  0  0  0  0  0  0  0  0  0  0  0
    5.8820   -6.3688   24.3787 H   0  0  0  0  0  0  0  0  0  0  0  0
    5.0556   -5.2806   25.2728 H   0  0  0  0  0  0  0  0  0  0  0  0
    4.3098   -6.0706   24.0536 H   0  0  0  0  0  0  0  0  0  0  0  0
   10.7093   -1.2028   18.3994 H   0  0  0  0  0  0  0  0  0  0  0  0
    9.0783   -1.2848   18.4042 H   0  0  0  0  0  0  0  0  0  0  0  0
    9.8661   -0.6187   19.6700 H   0  0  0  0  0  0  0  0  0  0  0  0
   10.9661   -6.2374   21.6656 H   0  0  0  0  0  0  0  0  0  0  0  0
   11.2653   -4.9599   20.6934 H   0  0  0  0  0  0  0  0  0  0  0  0
   11.1893   -4.7544   22.3116 H   0  0  0  0  0  0  0  0  0  0  0  0
    3.2980   -1.0700   22.5510 C   0  0  0  0  0  0  0  0  0  0  0  0
    4.5290   -1.3550   21.9860 C   0  0  0  0  0  0  0  0  0  0  0  0
    6.7540   -1.5520   20.7880 C   0  0  0  0  0  0  0  0  0  0  0  0
    7.9820   -1.5870   20.1550 C   0  0  0  0  0  0  0  0  0  0  0  0
    1.5650   -1.7060   23.9850 C   0  0  0  0  0  0  0  0  0  0  0  0
    2.9130   -4.0920   24.6990 C   0  0  0  0  0  0  0  0  0  0  0  0
    6.8430   -4.7500   22.7500 C   0  0  0  0  0  0  0  0  0  0  0  0
    2.8090   -2.0140   23.4410 C   0  0  0  0  0  0  0  0  0  0  0  0
    6.4600   -2.6150   21.6400 C   0  0  0  0  0  0  0  0  0  0  0  0
    5.2470   -2.5040   22.2910 C   0  0  0  0  0  0  0  0  0  0  0  0
    3.5210   -3.2160   23.7770 C   0  0  0  0  0  0  0  0  0  0  0  0
    7.2910   -3.7210   21.8850 C   0  0  0  0  0  0  0  0  0  0  0  0
    4.7900   -3.4880   23.1800 C   0  0  0  0  0  0  0  0  0  0  0  0
    1.0590   -2.6030   24.8410 C   0  0  0  0  0  0  0  0  0  0  0  0
    1.7110   -3.7470   25.1960 C   0  0  0  0  0  0  0  0  0  0  0  0
    8.8130   -2.6920   20.3630 C   0  0  0  0  0  0  0  0  0  0  0  0
    8.5290   -3.7870   21.2400 C   0  0  0  0  0  0  0  0  0  0  0  0
   -0.4540   -3.9090   25.9270 C   0  0  1  0  0  0  0  0  0  0  0  0
    5.1720   -5.6650   24.3570 C   0  0  0  0  0  0  0  0  0  0  0  0
    9.9000   -1.3340   18.9720 C   0  0  0  0  0  0  0  0  0  0  0  0
   10.8130   -5.2580   21.5340 C   0  0  0  0  0  0  0  0  0  0  0  0
    5.5740   -4.5800   23.4080 N   0  3  0  0  0  0  0  0  0  0  0  0
   -0.1520   -2.5010   25.4950 O   0  0  0  0  0  0  0  0  0  0  0  0
    0.9560   -4.4580   26.1080 O   0  0  0  0  0  0  0  0  0  0  0  0
    9.9690   -2.6680   19.6310 O   0  0  0  0  0  0  0  0  0  0  0  0
    9.3540   -4.9940   21.4320 O   0  0  0  0  0  0  0  0  0  0  0  0
  1 19  1  0  0  0  0
  2 20  1  0  0  0  0
  3 21  1  0  0  0  0
  4 22  1  0  0  0  0
  5 23  1  0  0  0  0
  6 24  1  0  0  0  0
  7 25  1  0  0  0  0
  8 36  1  0  0  0  0
  9 36  1  0  0  0  0
 10 37  1  0  0  0  0
 11 37  1  0  0  0  0
 12 37  1  0  0  0  0
 13 38  1  0  0  0  0
 14 38  1  0  0  0  0
 15 38  1  0  0  0  0
 16 39  1  0  0  0  0
 17 39  1  0  0  0  0
 18 39  1  0  0  0  0
 19 20  2  0  0  0  0
 19 26  1  0  0  0  0
 20 28  1  0  0  0  0
 21 22  2  0  0  0  0
 21 27  1  0  0  0  0
 22 34  1  0  0  0  0
 23 26  2  0  0  0  0
 23 32  1  0  0  0  0
 24 29  2  0  0  0  0
 24 33  1  0  0  0  0
 25 30  1  0  0  0  0
 25 40  2  0  0  0  0
 26 29  1  0  0  0  0
 27 28  1  0  0  0  0
 27 30  2  0  0  0  0
 28 31  2  0  0  0  0
 29 31  1  0  0  0  0
 30 35  1  0  0  0  0
 31 40  1  0  0  0  0
 32 33  2  0  0  0  0
 32 41  1  0  0  0  0
 33 42  1  0  0  0  0
 34 35  2  0  0  0  0
 34 43  1  0  0  0  0
 35 44  1  0  0  0  0
 36 41  1  0  0  0  0
 36 42  1  0  0  0  0
 37 40  1  0  0  0  0
 38 43  1  0  0  0  0
 39 44  1  0  0  0  0
M  CHG  1  40   1
M  END
> <scpdb_id>
4y29_1

$$$$
