#    Name: 28004
#    Modification time : Tue Aug  8 22:21:32 2017

@<TRIPOS>MOLECULE
28004
   71     0    12     0     0
SMALL
NO_CHARGES


@<TRIPOS>ATOM
      1 N          36.2160   25.8490  -43.9270 N.am      1 SEL1        0.0000 
      2 N          39.3680   23.3360  -44.9420 N.am      1 SEL1        0.0000 
      3 N          38.6550   25.3330  -45.7390 N.am      1 SEL1        0.0000 
      4 O          35.5700   26.5220  -45.9750 O.2       2 ALL2        0.0000 
      5 CA         38.8030   29.2480  -45.6880 C.3       3 GLL5        0.0000 
      6 CA         37.1920   22.0790  -46.0830 C.3       3 GLL5        0.0000 
      7 CA         37.0540   32.8740  -46.8530 C.3       3 GLL5        0.0000 
      8 CA         40.5420   28.5950  -45.3790 C.3       3 GLL5        0.0000 
      9 CA         32.0260   31.0150  -46.3970 C.3       3 GLL5        0.0000 
     10 CA         30.7470   31.4100  -46.7860 C.3       3 GLL5        0.0000 
     11 CA         31.2180   33.7320  -46.2280 C.3       3 GLL5        0.0000 
     12 CA         33.6440   34.5980  -45.2090 C.3       3 GLL5        0.0000 
     13 CA         34.7600   23.5140  -45.8260 C.3       3 GLL5        0.0000 
     14 CA         30.3550   32.7430  -46.7010 C.3       3 GLL5        0.0000 
     15 CA         36.2120   30.1990  -46.1560 C.3       3 GLL5        0.0000 
     16 CZ         35.9805   22.8033  -45.9545 C.ar      4 PHL6        0.0000 
     17 CZ         37.5292   29.7145  -45.9193 C.ar      4 PHL6        0.0000 
     18 N          33.4270   26.2200  -42.4050 N.am      5 SEP1        0.0000 
     19 N          37.2960   24.7850  -41.5730 N.am      5 SEP1        0.0000 
     20 N          41.8130   25.0310  -45.6100 N.am      5 SEP1        0.0000 
     21 O          35.1810   26.2650  -48.6730 O.2       6 ALP2        0.0000 
     22 CA         41.9860   28.8160  -48.7490 C.3       7 GLP5        0.0000 
     23 CA         40.5430   20.6260  -47.5810 C.3       7 GLP5        0.0000 
     24 CA         35.6670   34.7970  -50.3300 C.3       7 GLP5        0.0000 
     25 CA         38.3820   29.7930  -49.5090 C.3       7 GLP5        0.0000 
     26 CA         39.0970   29.9670  -42.0820 C.3       7 GLP5        0.0000 
     27 CA         40.3910   26.6240  -42.0520 C.3       7 GLP5        0.0000 
     28 CA         43.3310   30.2370  -42.9530 C.3       7 GLP5        0.0000 
     29 CA         39.7900   27.5490  -48.7010 C.3       7 GLP5        0.0000 
     30 CA         33.0420   29.0040  -49.8300 C.3       7 GLP5        0.0000 
     31 CA         31.4800   30.5180  -51.0640 C.3       7 GLP5        0.0000 
     32 CA         32.2620   37.5140  -48.1530 C.3       7 GLP5        0.0000 
     33 CA         32.5990   38.2310  -46.8570 C.3       7 GLP5        0.0000 
     34 CA         33.3550   34.1940  -49.4970 C.3       7 GLP5        0.0000 
     35 CA         35.9940   37.0500  -45.1750 C.3       7 GLP5        0.0000 
     36 CA         37.6840   34.1660  -43.1290 C.3       7 GLP5        0.0000 
     37 CA         31.4610   23.1740  -47.1070 C.3       7 GLP5        0.0000 
     38 CA         27.2430   29.6800  -46.9610 C.3       7 GLP5        0.0000 
     39 CA         30.9410   29.8570  -43.2210 C.3       7 GLP5        0.0000 
     40 CA         27.5130   35.4190  -47.0590 C.3       7 GLP5        0.0000 
     41 CA         36.6670   30.4490  -41.9700 C.3       7 GLP5        0.0000 
     42 CZ         35.2295   20.7423  -42.7448 C.ar      8 PHP6        0.0000 
     43 CZ         39.0867   28.6685  -49.1047 C.ar      8 PHP6        0.0000 
     44 N          34.8215   26.0345  -43.1660 N.am      9 SEC1        0.0000 
     45 N          36.7560   25.3170  -42.7500 N.am      9 SEC1        0.0000 
     46 N          40.5905   24.1835  -45.2760 N.am      9 SEC1        0.0000 
     47 N          40.2340   25.1820  -45.6745 N.am      9 SEC1        0.0000 
     48 O          35.3755   26.3935  -47.3240 O.2      10 ALC2        0.0000 
     49 CA         40.3945   29.0320  -47.2185 C.3      11 GLC5        0.0000 
     50 CA         38.8675   21.3525  -46.8320 C.3      11 GLC5        0.0000 
     51 CA         36.3605   33.8355  -48.5915 C.3      11 GLC5        0.0000 
     52 CA         37.7180   31.3335  -48.1810 C.3      11 GLC5        0.0000 
     53 CA         39.8195   29.2810  -43.7305 C.3      11 GLC5        0.0000 
     54 CA         40.4665   27.6095  -43.7155 C.3      11 GLC5        0.0000 
     55 CA         41.9365   29.4160  -44.1660 C.3      11 GLC5        0.0000 
     56 CA         40.1660   28.0720  -47.0400 C.3      11 GLC5        0.0000 
     57 CA         32.5340   30.0095  -48.1135 C.3      11 GLC5        0.0000 
     58 CA         31.1135   30.9640  -48.9250 C.3      11 GLC5        0.0000 
     59 CA         31.7400   35.6230  -47.1905 C.3      11 GLC5        0.0000 
     60 CA         33.1215   36.4145  -46.0330 C.3      11 GLC5        0.0000 
     61 CA         33.4995   34.3960  -47.3530 C.3      11 GLC5        0.0000 
     62 CA         34.8190   35.8240  -45.1920 C.3      11 GLC5        0.0000 
     63 CA         37.4475   33.0745  -44.8573 C.3      11 GLC5        0.0000 
     64 CA         38.6614   29.5545  -43.8927 C.3      11 GLC5        0.0000 
     65 CA         33.1150   23.0113  -46.5687 C.3      11 GLC5        0.0000 
     66 CA         28.8970   30.8783  -46.8522 C.3      11 GLC5        0.0000 
     67 CA         31.2750   30.6531  -44.8440 C.3      11 GLC5        0.0000 
     68 CA         29.1498   34.3282  -46.7617 C.3      11 GLC5        0.0000 
     69 CA         36.6103   30.2602  -44.0329 C.3      11 GLC5        0.0000 
     70 CZ         35.6050   21.7728  -44.3497 C.ar     12 PHC6        0.0000 
     71 CZ         38.3079   29.1915  -47.5120 C.ar     12 PHC6        0.0000 
@<TRIPOS>BOND
@<TRIPOS>SUBSTRUCTURE
     1 SEL1        1 GROUP        1 Z    SEL  0     ROOT SEL Z 0
     2 ALL2        4 GROUP        1 Z    ALL  0     **** ALL Z 1
     3 GLL5        5 GROUP        1 Z    GLL  0     **** GLL Z 4
     4 PHL6       16 GROUP        1 Z    PHL  0     **** PHL Z 6
     5 SEP1       18 GROUP        1 Z    SEP  0     **** SEP Z 7
     6 ALP2       21 GROUP        1 Z    ALP  0     **** ALP Z 8
     7 GLP5       22 GROUP        1 Z    GLP  0     **** GLP Z 11
     8 PHP6       42 GROUP        1 Z    PHP  0     **** PHP Z 13
     9 SEC1       44 GROUP        1 Z    SEC  0     **** SEC Z 14
    10 ALC2       48 GROUP        1 Z    ALC  0     **** ALC Z 15
    11 GLC5       49 GROUP        1 Z    GLC  0     **** GLC Z 18
    12 PHC6       70 GROUP        1 Z    PHC  0     **** PHC Z 20
@<TRIPOS>SET

