#    Name: 19450
#    Modification time : Tue Aug  8 23:19:41 2017

@<TRIPOS>MOLECULE
19450
   39     0    12     0     0
SMALL
NO_CHARGES


@<TRIPOS>ATOM
      1 N         -21.6810    5.2680  -23.3100 N.am      1 SEL1        0.0000 
      2 N         -19.8740    6.5280  -21.9220 N.am      1 SEL1        0.0000 
      3 O         -24.2810    5.1030  -24.1940 O.2       2 ALL2        0.0000 
      4 CA        -25.1810   11.3800  -24.3830 C.3       3 GLL5        0.0000 
      5 CA        -28.5080   13.4580  -21.0770 C.3       3 GLL5        0.0000 
      6 CA        -27.0360   13.0360  -22.9550 C.3       3 GLL5        0.0000 
      7 CA        -26.6920   11.7920  -22.3950 C.3       3 GLL5        0.0000 
      8 CA        -24.5160    8.7480  -23.2340 C.3       3 GLL5        0.0000 
      9 CA        -27.2960   11.3780  -21.2040 C.3       3 GLL5        0.0000 
     10 Zn        -25.9890    7.6500  -19.5970 Zn        4 ZIL7        0.0000 
     11 Zn        -27.5230    9.7420  -19.5540 Zn        4 ZIL7        0.0000 
     12 N         -20.1280    7.3900  -25.1650 N.am      5 SEP1        0.0000 
     13 N         -20.6500    3.7430  -25.5650 N.am      5 SEP1        0.0000 
     14 N         -20.1050    3.4670  -22.0340 N.am      5 SEP1        0.0000 
     15 O         -22.8350    3.6690  -26.0810 O.2       6 ALP2        0.0000 
     16 CA        -21.8050   12.4100  -23.2110 C.3       7 GLP5        0.0000 
     17 CA        -24.3100   14.0200  -27.7280 C.3       7 GLP5        0.0000 
     18 CA        -29.7160   14.7070  -17.2990 C.3       7 GLP5        0.0000 
     19 CA        -29.5050   13.3070  -25.9840 C.3       7 GLP5        0.0000 
     20 CA        -24.7610   13.3860  -19.5280 C.3       7 GLP5        0.0000 
     21 CA        -21.8570   11.2760  -22.1630 C.3       7 GLP5        0.0000 
     22 CA        -26.7820    8.4080  -26.4020 C.3       7 GLP5        0.0000 
     23 Zn        -27.5510    8.1240  -18.4090 Zn        8 ZIP7        0.0000 
     24 N         -20.9045    6.3290  -24.2375 N.am      9 SEC1        0.0000 
     25 N         -21.1655    4.5055  -24.4375 N.am      9 SEC1        0.0000 
     26 N         -20.8930    4.3675  -22.6720 N.am      9 SEC1        0.0000 
     27 N         -20.0010    6.9590  -23.5435 N.am      9 SEC1        0.0000 
     28 O         -23.5580    4.3860  -25.1375 O.2      10 ALC2        0.0000 
     29 CA        -23.4930   11.8950  -23.7970 C.3      11 GLC5        0.0000 
     30 CA        -24.7455   12.7000  -26.0555 C.3      11 GLC5        0.0000 
     31 CA        -29.0343   13.7720  -19.0538 C.3      11 GLC5        0.0000 
     32 CA        -28.4930   13.3803  -24.3005 C.3      11 GLC5        0.0000 
     33 CA        -25.5057   12.3732  -21.1313 C.3      11 GLC5        0.0000 
     34 CA        -23.4691   10.4017  -22.5891 C.3      11 GLC5        0.0000 
     35 CA        -25.7035    8.2085  -24.7287 C.3      11 GLC5        0.0000 
     36 CA        -26.0351    9.3745  -24.8869 C.3      11 GLC5        0.0000 
     37 CA        -26.1987   13.0641  -20.6589 C.3      11 GLC5        0.0000 
     38 Zn        -26.7700    7.8870  -19.0030 Zn       12 ZIC7        0.0000 
     39 Zn        -27.5370    8.9330  -18.9815 Zn       12 ZIC7        0.0000 
@<TRIPOS>BOND
@<TRIPOS>SUBSTRUCTURE
     1 SEL1        1 GROUP        1 Z    SEL  0     ROOT SEL Z 0
     2 ALL2        3 GROUP        1 Z    ALL  0     **** ALL Z 1
     3 GLL5        4 GROUP        1 Z    GLL  0     **** GLL Z 4
     4 ZIL7       10 GROUP        1 Z    ZIL  0     **** ZIL Z 5
     5 SEP1       12 GROUP        1 Z    SEP  0     **** SEP Z 7
     6 ALP2       15 GROUP        1 Z    ALP  0     **** ALP Z 8
     7 GLP5       16 GROUP        1 Z    GLP  0     **** GLP Z 11
     8 ZIP7       23 GROUP        1 Z    ZIP  0     **** ZIP Z 12
     9 SEC1       24 GROUP        1 Z    SEC  0     **** SEC Z 14
    10 ALC2       28 GROUP        1 Z    ALC  0     **** ALC Z 15
    11 GLC5       29 GROUP        1 Z    GLC  0     **** GLC Z 18
    12 ZIC7       38 GROUP        1 Z    ZIC  0     **** ZIC Z 19
@<TRIPOS>SET

