2vkv_TDC_1_ligand
  -OEChem-08111718373D

 52 55  0     1  0  0  0  0  0999 V2000
  -28.1488   14.7699  -22.6564 H   0  0  0  0  0  0  0  0  0  0  0  0
  -26.6455   13.3195  -23.8309 H   0  0  0  0  0  0  0  0  0  0  0  0
  -29.1507   14.0593  -20.6022 H   0  0  0  0  0  0  0  0  0  0  0  0
  -23.5823    9.0020  -22.9817 H   0  0  0  0  0  0  0  0  0  0  0  0
  -24.6365    8.8583  -24.2206 H   0  0  0  0  0  0  0  0  0  0  0  0
  -23.4563    6.9269  -24.4357 H   0  0  0  0  0  0  0  0  0  0  0  0
  -25.6626    7.0023  -23.1338 H   0  0  0  0  0  0  0  0  0  0  0  0
  -24.5848   10.6575  -24.7330 H   0  0  0  0  0  0  0  0  0  0  0  0
  -25.9012   11.5702  -25.0501 H   0  0  0  0  0  0  0  0  0  0  0  0
  -24.6439   12.2089  -24.2269 H   0  0  0  0  0  0  0  0  0  0  0  0
  -25.0738    3.2931  -23.6742 H   0  0  0  0  0  0  0  0  0  0  0  0
  -23.9505    3.8397  -22.6226 H   0  0  0  0  0  0  0  0  0  0  0  0
  -25.4471    4.4928  -22.6312 H   0  0  0  0  0  0  0  0  0  0  0  0
  -25.6776    4.5120  -25.5680 H   0  0  0  0  0  0  0  0  0  0  0  0
  -26.0685    5.8969  -24.7960 H   0  0  0  0  0  0  0  0  0  0  0  0
  -24.9255    5.9069  -25.9621 H   0  0  0  0  0  0  0  0  0  0  0  0
  -19.5304    7.8248  -19.9607 H   0  0  0  0  0  0  0  0  0  0  0  0
  -21.1964    8.2298  -19.7152 H   0  0  0  0  0  0  0  0  0  0  0  0
  -28.5629   10.9194  -18.9842 H   0  0  0  0  0  0  0  0  0  0  0  0
  -25.7201    5.6877  -20.6185 H   0  0  0  0  0  0  0  0  0  0  0  0
  -27.9260   13.8710  -22.2790 C   0  0  0  0  0  0  0  0  0  0  0  0
  -27.0360   13.0360  -22.9550 C   0  0  0  0  0  0  0  0  0  0  0  0
  -28.5080   13.4580  -21.0770 C   0  0  0  0  0  0  0  0  0  0  0  0
  -26.6920   11.7920  -22.3950 C   0  0  0  0  0  0  0  0  0  0  0  0
  -27.2960   11.3780  -21.2040 C   0  0  0  0  0  0  0  0  0  0  0  0
  -26.0690    9.2940  -21.3200 C   0  0  0  0  0  0  0  0  0  0  0  0
  -25.4840    9.6850  -22.5190 C   0  0  0  0  0  0  0  0  0  0  0  0
  -25.8090   10.9290  -23.0740 C   0  0  0  0  0  0  0  0  0  0  0  0
  -26.9840   10.1250  -20.6590 C   0  0  0  0  0  0  0  0  0  0  0  0
  -28.1970   12.2160  -20.5400 C   0  0  0  0  0  0  0  0  0  0  0  0
  -25.6370    7.9910  -20.7130 C   0  0  0  0  0  0  0  0  0  0  0  0
  -22.1220    6.9170  -21.7490 C   0  0  0  0  0  0  0  0  0  0  0  0
  -23.1420    7.5220  -21.0350 C   0  0  0  0  0  0  0  0  0  0  0  0
  -22.4420    6.1710  -22.8610 C   0  0  0  0  0  0  0  0  0  0  0  0
  -20.8210    7.0420  -21.3180 C   0  0  0  0  0  0  0  0  0  0  0  0
  -24.5160    8.7480  -23.2340 C   0  0  2  0  0  0  0  0  0  0  0  0
  -23.7230    6.3890  -23.6360 C   0  0  2  0  0  0  0  0  0  0  0  0
  -24.7340    7.2700  -22.8770 C   0  0  1  0  0  0  0  0  0  0  0  0
  -24.5740    7.1410  -21.3770 C   0  0  2  0  0  0  0  0  0  0  0  0
  -25.1810   11.3800  -24.3830 C   0  0  0  0  0  0  0  0  0  0  0  0
  -24.7240    4.1010  -23.2000 C   0  0  0  0  0  0  0  0  0  0  0  0
  -25.3230    5.3770  -25.2130 C   0  0  0  0  0  0  0  0  0  0  0  0
  -20.4880    7.7590  -20.2410 N   0  0  0  0  0  0  0  0  0  0  0  0
  -24.2810    5.1030  -24.1940 N   0  3  1  0  0  0  0  0  0  0  0  0
  -27.5230    9.7420  -19.5540 O   0  5  0  0  0  0  0  0  0  0  0  0
  -25.9890    7.6500  -19.5970 O   0  0  0  0  0  0  0  0  0  0  0  0
  -21.6810    5.2680  -23.3100 O   0  0  0  0  0  0  0  0  0  0  0  0
  -19.8740    6.5280  -21.9220 O   0  0  0  0  0  0  0  0  0  0  0  0
  -28.7800   11.8160  -19.3700 O   0  0  0  0  0  0  0  0  0  0  0  0
  -22.9380    8.3580  -20.1280 O   0  5  0  0  0  0  0  0  0  0  0  0
  -24.7560    5.8250  -20.8460 O   0  0  0  0  0  0  0  0  0  0  0  0
  -23.5237    4.6773  -24.6892 H   0  0  0  0  0  0  0  0  0  0  0  0
  1 21  1  0  0  0  0
  2 22  1  0  0  0  0
  3 23  1  0  0  0  0
  4 36  1  0  0  0  0
  5 36  1  0  0  0  0
  6 37  1  0  0  0  0
  7 38  1  0  0  0  0
  8 40  1  0  0  0  0
  9 40  1  0  0  0  0
 10 40  1  0  0  0  0
 11 41  1  0  0  0  0
 12 41  1  0  0  0  0
 13 41  1  0  0  0  0
 14 42  1  0  0  0  0
 15 42  1  0  0  0  0
 16 42  1  0  0  0  0
 17 43  1  0  0  0  0
 18 43  1  0  0  0  0
 19 49  1  0  0  0  0
 20 51  1  0  0  0  0
 21 22  1  0  0  0  0
 21 23  2  0  0  0  0
 22 24  2  0  0  0  0
 23 30  1  0  0  0  0
 24 25  1  0  0  0  0
 24 28  1  0  0  0  0
 25 29  1  0  0  0  0
 25 30  2  0  0  0  0
 26 27  1  0  0  0  0
 26 29  2  0  0  0  0
 26 31  1  0  0  0  0
 27 28  2  0  0  0  0
 27 36  1  0  0  0  0
 28 40  1  0  0  0  0
 29 45  1  0  0  0  0
 30 49  1  0  0  0  0
 31 39  1  0  0  0  0
 31 46  2  0  0  0  0
 32 33  2  0  0  0  0
 32 34  1  0  0  0  0
 32 35  1  0  0  0  0
 33 39  1  0  0  0  0
 33 50  1  0  0  0  0
 34 37  1  0  0  0  0
 34 47  2  0  0  0  0
 35 43  1  0  0  0  0
 35 48  2  0  0  0  0
 36 38  1  0  0  0  0
 37 38  1  0  0  0  0
 37 44  1  0  0  0  0
 38 39  1  0  0  0  0
 39 51  1  0  0  0  0
 41 44  1  0  0  0  0
 42 44  1  0  0  0  0
 44 52  1  0  0  0  0
M  CHG  3  45  -1  50  -1  44   1
M  END
> <scpdb_id>
2vkv_1

$$$$
