@<TRIPOS>MOLECULE
2vkv_TDC_1_ligand
   53    56     1     0     0
SMALL
NO_CHARGES


@<TRIPOS>ATOM
     1 O12        -25.9890     7.6500   -19.5970 O.2          1 TDC1206   0.0000
     2 C12        -25.6370     7.9910   -20.7130 C.2          1 TDC1206   0.0000
     3 C1B        -26.0690     9.2940   -21.3200 C.ar         1 TDC1206   0.0000
     4 C11        -26.9840    10.1250   -20.6590 C.ar         1 TDC1206   0.0000
     5 O11        -27.5230     9.7420   -19.5540 O.3          1 TDC1206  -1.0000
     6 C1A        -27.2960    11.3780   -21.2040 C.ar         1 TDC1206   0.0000
     7 C10        -28.1970    12.2160   -20.5400 C.ar         1 TDC1206   0.0000
     8 O10        -28.7800    11.8160   -19.3700 O.3          1 TDC1206   0.0000
     9 C9         -28.5080    13.4580   -21.0770 C.ar         1 TDC1206   0.0000
    10 C8         -27.9260    13.8710   -22.2790 C.ar         1 TDC1206   0.0000
    11 C7         -27.0360    13.0360   -22.9550 C.ar         1 TDC1206   0.0000
    12 C61        -26.6920    11.7920   -22.3950 C.ar         1 TDC1206   0.0000
    13 C6         -25.8090    10.9290   -23.0740 C.ar         1 TDC1206   0.0000
    14 C62        -25.1810    11.3800   -24.3830 C.3          1 TDC1206   0.0000
    15 C51        -25.4840     9.6850   -22.5190 C.ar         1 TDC1206   0.0000
    16 C5         -24.5160     8.7480   -23.2340 C.3          1 TDC1206   0.0000
    17 C1C        -24.5740     7.1410   -21.3770 C.3          1 TDC1206   0.0000
    18 C1         -23.1420     7.5220   -21.0350 C.2          1 TDC1206   0.0000
    19 O1         -22.9380     8.3580   -20.1280 O.3          1 TDC1206   0.0000
    20 O1C        -24.7560     5.8250   -20.8460 O.3          1 TDC1206   0.0000
    21 C41        -24.7340     7.2700   -22.8770 C.3          1 TDC1206   0.0000
    22 C4         -23.7230     6.3890   -23.6360 C.3          1 TDC1206   0.0000
    23 N4         -24.2810     5.1030   -24.1940 N.4          1 TDC1206   1.0000
    24 C43        -24.7240     4.1010   -23.2000 C.3          1 TDC1206   0.0000
    25 C42        -25.3230     5.3770   -25.2130 C.3          1 TDC1206   0.0000
    26 C3         -22.4420     6.1710   -22.8610 C.2          1 TDC1206   0.0000
    27 O3         -21.6810     5.2680   -23.3100 O.2          1 TDC1206   0.0000
    28 C2         -22.1220     6.9170   -21.7490 C.2          1 TDC1206   0.0000
    29 C21        -20.8210     7.0420   -21.3180 C.2          1 TDC1206   0.0000
    30 O21        -19.8740     6.5280   -21.9220 O.2          1 TDC1206   0.0000
    31 N21        -20.4880     7.7590   -20.2410 N.am         1 TDC1206   0.0000
    32 H1         -28.5629    10.9194   -18.9842 H            1 TDC1206   0.0000
    33 H2         -29.1507    14.0593   -20.6022 H            1 TDC1206   0.0000
    34 H3         -28.1488    14.7699   -22.6564 H            1 TDC1206   0.0000
    35 H4         -26.6455    13.3195   -23.8309 H            1 TDC1206   0.0000
    36 H5         -24.5848    10.6575   -24.7330 H            1 TDC1206   0.0000
    37 H6         -25.9012    11.5702   -25.0501 H            1 TDC1206   0.0000
    38 H7         -24.6439    12.2089   -24.2269 H            1 TDC1206   0.0000
    39 H8         -23.5823     9.0020   -22.9817 H            1 TDC1206   0.0000
    40 H9         -24.6365     8.8583   -24.2206 H            1 TDC1206   0.0000
    41 H10        -23.7103     8.7649   -19.6401 H            1 TDC1206   0.0000
    42 H1C        -25.7201     5.6877   -20.6185 H            1 TDC1206   0.0000
    43 H12        -25.6626     7.0023   -23.1338 H            1 TDC1206   0.0000
    44 H13        -23.4563     6.9269   -24.4357 H            1 TDC1206   0.0000
    45 H14        -25.0738     3.2931   -23.6742 H            1 TDC1206   0.0000
    46 H15        -23.9505     3.8397   -22.6226 H            1 TDC1206   0.0000
    47 H16        -25.4471     4.4928   -22.6312 H            1 TDC1206   0.0000
    48 H17        -25.6776     4.5120   -25.5680 H            1 TDC1206   0.0000
    49 H18        -26.0685     5.8969   -24.7960 H            1 TDC1206   0.0000
    50 H19        -24.9255     5.9069   -25.9621 H            1 TDC1206   0.0000
    51 H20        -19.5304     7.8248   -19.9607 H            1 TDC1206   0.0000
    52 H21        -21.1964     8.2298   -19.7152 H            1 TDC1206   0.0000
    53 H22        -23.5256     4.6746   -24.6899 H            1 TDC1206   0.0000
@<TRIPOS>BOND
     1    1    2       2
     2    2    3       1
     3    2   17       1
     4    3    4      ar
     5    3   15      ar
     6    4    5       1
     7    4    6      ar
     8    6    7      ar
     9    6   12      ar
    10    7    8       1
    11    7    9      ar
    12    9   10      ar
    13   10   11      ar
    14   11   12      ar
    15   12   13      ar
    16   13   14       1
    17   13   15      ar
    18   15   16       1
    19   16   21       1
    20   17   18       1
    21   17   20       1
    22   17   21       1
    23   18   19       1
    24   18   28       2
    25   21   22       1
    26   22   23       1
    27   22   26       1
    28   23   24       1
    29   23   25       1
    30   26   27       2
    31   26   28       1
    32   28   29       1
    33   29   30       2
    34   29   31      am
    35   23   53       1
    36    8   32       1
    37    9   33       1
    38   10   34       1
    39   11   35       1
    40   14   36       1
    41   14   37       1
    42   14   38       1
    43   16   39       1
    44   16   40       1
    45   19   41       1
    46   20   42       1
    47   21   43       1
    48   22   44       1
    49   24   45       1
    50   24   46       1
    51   24   47       1
    52   25   48       1
    53   25   49       1
    54   25   50       1
    55   31   51       1
    56   31   52       1
@<TRIPOS>SUBSTRUCTURE
     1 TDC1206     1 GROUP             4 A     TDC     0 **** TDC A1206
