2qpy_DHT_1_ligand
  -OEChem-08111718373D

 51 54  0     1  0  0  0  0  0999 V2000
   26.2552    7.2949    4.8580 H   0  0  0  0  0  0  0  0  0  0  0  0
   25.8740    6.5291    6.2489 H   0  0  0  0  0  0  0  0  0  0  0  0
   22.7497    5.0861    4.6026 H   0  0  0  0  0  0  0  0  0  0  0  0
   23.5170    4.9634    6.0389 H   0  0  0  0  0  0  0  0  0  0  0  0
   27.5023    5.2201    5.1377 H   0  0  0  0  0  0  0  0  0  0  0  0
   26.6316    5.2546    3.7567 H   0  0  0  0  0  0  0  0  0  0  0  0
   22.8270    2.4427    4.4073 H   0  0  0  0  0  0  0  0  0  0  0  0
   23.6526    2.3292    5.8117 H   0  0  0  0  0  0  0  0  0  0  0  0
   24.6127    1.3775    3.2432 H   0  0  0  0  0  0  0  0  0  0  0  0
   24.1150    0.4134    4.4637 H   0  0  0  0  0  0  0  0  0  0  0  0
   25.5605   -1.5544    3.8251 H   0  0  0  0  0  0  0  0  0  0  0  0
   26.1297   -1.5044    5.3548 H   0  0  0  0  0  0  0  0  0  0  0  0
   28.1599    2.4398    6.0456 H   0  0  0  0  0  0  0  0  0  0  0  0
   28.6676    3.3588    4.7948 H   0  0  0  0  0  0  0  0  0  0  0  0
   27.4213   -2.6482    3.0777 H   0  0  0  0  0  0  0  0  0  0  0  0
   27.7769   -2.9219    4.6478 H   0  0  0  0  0  0  0  0  0  0  0  0
   29.9116    1.3437    5.0567 H   0  0  0  0  0  0  0  0  0  0  0  0
   29.2435    1.4988    3.5748 H   0  0  0  0  0  0  0  0  0  0  0  0
   24.5153    3.9004    3.5247 H   0  0  0  0  0  0  0  0  0  0  0  0
   25.9883    1.0830    5.7828 H   0  0  0  0  0  0  0  0  0  0  0  0
   26.9171    0.2399    3.1708 H   0  0  0  0  0  0  0  0  0  0  0  0
   26.7736    2.7208    3.5236 H   0  0  0  0  0  0  0  0  0  0  0  0
   28.8760   -0.9119    2.9259 H   0  0  0  0  0  0  0  0  0  0  0  0
   25.4620    2.7911    6.9175 H   0  0  0  0  0  0  0  0  0  0  0  0
   26.8003    3.7149    7.0669 H   0  0  0  0  0  0  0  0  0  0  0  0
   25.3227    4.4101    7.0794 H   0  0  0  0  0  0  0  0  0  0  0  0
   27.9497   -1.2710    6.4175 H   0  0  0  0  0  0  0  0  0  0  0  0
   29.3503   -0.4445    6.5660 H   0  0  0  0  0  0  0  0  0  0  0  0
   27.9243    0.3173    6.7959 H   0  0  0  0  0  0  0  0  0  0  0  0
   30.7291   -1.2058    4.3133 H   0  0  0  0  0  0  0  0  0  0  0  0
   24.3790    6.3210    4.7660 C   0  0  0  0  0  0  0  0  0  0  0  0
   25.8410    6.4740    5.2510 C   0  0  1  0  0  0  0  0  0  0  0  0
   23.6430    5.0540    5.0510 C   0  0  2  0  0  0  0  0  0  0  0  0
   26.5790    5.2040    4.7540 C   0  0  2  0  0  0  0  0  0  0  0  0
   23.7370    2.4450    4.8220 C   0  0  1  0  0  0  0  0  0  0  0  0
   24.5710    1.2740    4.2370 C   0  0  2  0  0  0  0  0  0  0  0  0
   26.3590   -1.3550    4.3930 C   0  0  1  0  0  0  0  0  0  0  0  0
   28.2040    2.5100    5.0490 C   0  0  1  0  0  0  0  0  0  0  0  0
   27.5850   -2.2170    3.9650 C   0  0  2  0  0  0  0  0  0  0  0  0
   29.0520    1.3570    4.5460 C   0  0  2  0  0  0  0  0  0  0  0  0
   24.4420    3.8110    4.5180 C   0  0  2  0  0  0  0  0  0  0  0  0
   26.0280    1.2270    4.7940 C   0  0  1  0  0  0  0  0  0  0  0  0
   26.8670    0.0820    4.1570 C   0  0  1  0  0  0  0  0  0  0  0  0
   26.7310    2.5970    4.5150 C   0  0  1  0  0  0  0  0  0  0  0  0
   28.7610   -1.2050    3.8750 C   0  0  1  0  0  0  0  0  0  0  0  0
   25.9380    3.8350    5.1240 C   0  0  1  0  0  0  0  0  0  0  0  0
   28.3440   -0.0210    4.7210 C   0  0  1  0  0  0  0  0  0  0  0  0
   25.8750    3.6730    6.6900 C   0  0  0  0  0  0  0  0  0  0  0  0
   28.3970   -0.3890    6.2690 C   0  0  0  0  0  0  0  0  0  0  0  0
   23.8760    7.2830    4.1350 O   0  0  0  0  0  0  0  0  0  0  0  0
   29.9720   -1.8590    4.3280 O   0  0  0  0  0  0  0  0  0  0  0  0
  1 32  1  0  0  0  0
  2 32  1  0  0  0  0
  3 33  1  0  0  0  0
  4 33  1  0  0  0  0
  5 34  1  0  0  0  0
  6 34  1  0  0  0  0
  7 35  1  0  0  0  0
  8 35  1  0  0  0  0
  9 36  1  0  0  0  0
 10 36  1  0  0  0  0
 11 37  1  0  0  0  0
 12 37  1  0  0  0  0
 13 38  1  0  0  0  0
 14 38  1  0  0  0  0
 15 39  1  0  0  0  0
 16 39  1  0  0  0  0
 17 40  1  0  0  0  0
 18 40  1  0  0  0  0
 19 41  1  0  0  0  0
 20 42  1  0  0  0  0
 21 43  1  0  0  0  0
 22 44  1  0  0  0  0
 23 45  1  0  0  0  0
 24 48  1  0  0  0  0
 25 48  1  0  0  0  0
 26 48  1  0  0  0  0
 27 49  1  0  0  0  0
 28 49  1  0  0  0  0
 29 49  1  0  0  0  0
 30 51  1  0  0  0  0
 31 32  1  0  0  0  0
 31 33  1  0  0  0  0
 31 50  2  0  0  0  0
 32 34  1  0  0  0  0
 33 41  1  0  0  0  0
 34 46  1  0  0  0  0
 35 36  1  0  0  0  0
 35 41  1  0  0  0  0
 36 42  1  0  0  0  0
 37 39  1  0  0  0  0
 37 43  1  0  0  0  0
 38 40  1  0  0  0  0
 38 44  1  0  0  0  0
 39 45  1  0  0  0  0
 40 47  1  0  0  0  0
 41 46  1  0  0  0  0
 42 43  1  0  0  0  0
 42 44  1  0  0  0  0
 43 47  1  0  0  0  0
 44 46  1  0  0  0  0
 45 47  1  0  0  0  0
 45 51  1  0  0  0  0
 46 48  1  0  0  0  0
 47 49  1  0  0  0  0
M  END
> <scpdb_id>
2qpy_1

$$$$
