#    Name: 19682
#    Modification time : Tue Aug  8 19:31:57 2017

@<TRIPOS>MOLECULE
19682
   45     0    12     0     0
SMALL
NO_CHARGES


@<TRIPOS>ATOM
      1 N          33.2210  -95.3190  198.6920 N.am      1 SEL1        0.0000 
      2 N          35.6760  -94.8620  198.6690 N.am      1 SEL1        0.0000 
      3 N          37.6320  -99.2490  199.2430 N.am      1 SEL1        0.0000 
      4 N          35.7870  -94.4590  202.4550 N.am      1 SEL1        0.0000 
      5 N          33.4620  -95.4410  202.8300 N.am      1 SEL1        0.0000 
      6 N          29.1560  -88.5790  199.5710 N.am      1 SEL1        0.0000 
      7 O          37.6320  -99.2490  199.2430 O.2       2 ALL2        0.0000 
      8 O          29.2380  -96.2680  204.3650 O.2       2 ALL2        0.0000 
      9 O          30.0910  -90.5480  199.0500 O.2       2 ALL2        0.0000 
     10 CA         34.2690  -98.3000  198.8350 C.3       3 GLL5        0.0000 
     11 CA         29.0570  -89.6360  203.8290 C.3       3 GLL5        0.0000 
     12 CA         32.1710  -95.8280  202.4660 C.3       3 GLL5        0.0000 
     13 CZ         34.2550 -105.1493  200.1618 C.ar      4 PHL6        0.0000 
     14 N          33.6720  -92.7710  196.9330 N.am      5 SEP1        0.0000 
     15 N          37.9540  -94.0420  200.5580 N.am      5 SEP1        0.0000 
     16 N          39.9440 -100.5160  199.7330 N.am      5 SEP1        0.0000 
     17 N          37.1120  -96.1140  204.8130 N.am      5 SEP1        0.0000 
     18 N          37.9330  -92.3290  202.8990 N.am      5 SEP1        0.0000 
     19 N          34.6980  -95.0720  205.6350 N.am      5 SEP1        0.0000 
     20 N          29.5380  -87.6950  197.0860 N.am      5 SEP1        0.0000 
     21 N          30.8050  -86.1820  199.4150 N.am      5 SEP1        0.0000 
     22 O          36.8808  -99.3857  202.5780 O.2       6 ALP2        0.0000 
     23 O          31.0550  -98.3250  206.3240 O.2       6 ALP2        0.0000 
     24 O          30.5850  -89.5850  196.4660 O.2       6 ALP2        0.0000 
     25 CA         31.3210  -99.2040  201.7650 C.3       7 GLP5        0.0000 
     26 CA         26.8700  -89.9080  207.0110 C.3       7 GLP5        0.0000 
     27 CA         31.7720  -88.1960  205.8220 C.3       7 GLP5        0.0000 
     28 CZ         37.5184 -106.3504  198.2742 C.ar      8 PHP6        0.0000 
     29 N          33.4465  -94.0450  197.8125 N.am      9 SEC1        0.0000 
     30 N          36.8150  -94.4520  199.6135 N.am      9 SEC1        0.0000 
     31 N          34.6740  -93.8165  197.8010 N.am      9 SEC1        0.0000 
     32 N          38.7880  -99.8825  199.4880 N.am      9 SEC1        0.0000 
     33 N          36.4495  -95.2865  203.6340 N.am      9 SEC1        0.0000 
     34 N          36.8600  -93.3940  202.6770 N.am      9 SEC1        0.0000 
     35 N          34.0800  -95.2565  204.2325 N.am      9 SEC1        0.0000 
     36 N          29.3470  -88.1370  198.3285 N.am      9 SEC1        0.0000 
     37 N          29.9805  -87.3805  199.4930 N.am      9 SEC1        0.0000 
     38 O          37.2564  -99.3174  200.9105 O.2      10 ALC2        0.0000 
     39 O          30.1465  -97.2965  205.3445 O.2      10 ALC2        0.0000 
     40 O          30.3380  -90.0665  197.7580 O.2      10 ALC2        0.0000 
     41 CA         32.7950  -98.7520  200.3000 C.3      11 GLC5        0.0000 
     42 CA         27.9635  -89.7720  205.4200 C.3      11 GLC5        0.0000 
     43 CA         31.0113  -97.4000  202.4154 C.3      11 GLC5        0.0000 
     44 CA         30.4330  -88.8088  204.4832 C.3      11 GLC5        0.0000 
     45 CZ         35.8867 -105.7499  199.2180 C.ar     12 PHC6        0.0000 
@<TRIPOS>BOND
@<TRIPOS>SUBSTRUCTURE
     1 SEL1        1 GROUP        1 Z    SEL  0     ROOT SEL Z 0
     2 ALL2        7 GROUP        1 Z    ALL  0     **** ALL Z 1
     3 GLL5       10 GROUP        1 Z    GLL  0     **** GLL Z 4
     4 PHL6       13 GROUP        1 Z    PHL  0     **** PHL Z 6
     5 SEP1       14 GROUP        1 Z    SEP  0     **** SEP Z 7
     6 ALP2       22 GROUP        1 Z    ALP  0     **** ALP Z 8
     7 GLP5       25 GROUP        1 Z    GLP  0     **** GLP Z 11
     8 PHP6       28 GROUP        1 Z    PHP  0     **** PHP Z 13
     9 SEC1       29 GROUP        1 Z    SEC  0     **** SEC Z 14
    10 ALC2       38 GROUP        1 Z    ALC  0     **** ALC Z 15
    11 GLC5       41 GROUP        1 Z    GLC  0     **** GLC Z 18
    12 PHC6       45 GROUP        1 Z    PHC  0     **** PHC Z 20
@<TRIPOS>SET

