2vuu_NAP_4_ligand
  -OEChem-08111718373D

 73 77  0     1  0  0  0  0  0999 V2000
   28.8237  -88.9743  204.5415 H   0  0  0  0  0  0  0  0  0  0  0  0
   28.9464  -88.2498  202.2369 H   0  0  0  0  0  0  0  0  0  0  0  0
   29.2612  -91.3001  205.1417 H   0  0  0  0  0  0  0  0  0  0  0  0
   29.9643  -92.1651  201.0157 H   0  0  0  0  0  0  0  0  0  0  0  0
   34.8027 -105.5323  202.3886 H   0  0  0  0  0  0  0  0  0  0  0  0
   34.3773 -102.6949  196.7318 H   0  0  0  0  0  0  0  0  0  0  0  0
   36.3635  -99.0282  197.6967 H   0  0  0  0  0  0  0  0  0  0  0  0
   29.6621  -96.2689  202.4061 H   0  0  0  0  0  0  0  0  0  0  0  0
   35.9742 -101.1569  197.2197 H   0  0  0  0  0  0  0  0  0  0  0  0
   29.0047  -94.1183  201.8642 H   0  0  0  0  0  0  0  0  0  0  0  0
   35.5576  -99.1011  200.2253 H   0  0  0  0  0  0  0  0  0  0  0  0
   31.4394  -95.5207  204.3720 H   0  0  0  0  0  0  0  0  0  0  0  0
   36.3462 -102.0105  199.8947 H   0  0  0  0  0  0  0  0  0  0  0  0
   29.7345  -93.4271  204.5748 H   0  0  0  0  0  0  0  0  0  0  0  0
   33.8320  -98.5913  197.9840 H   0  0  0  0  0  0  0  0  0  0  0  0
   33.5673  -98.1052  199.5203 H   0  0  0  0  0  0  0  0  0  0  0  0
   32.1129  -96.8263  202.4633 H   0  0  0  0  0  0  0  0  0  0  0  0
   31.9664  -95.4797  201.5512 H   0  0  0  0  0  0  0  0  0  0  0  0
   32.5670 -107.8709  199.2866 H   0  0  0  0  0  0  0  0  0  0  0  0
   32.5793 -106.8870  197.8612 H   0  0  0  0  0  0  0  0  0  0  0  0
   30.1707  -90.3038  198.0836 H   0  0  0  0  0  0  0  0  0  0  0  0
   30.4107  -91.4405  199.3682 H   0  0  0  0  0  0  0  0  0  0  0  0
   37.4956  -99.4489  200.2133 H   0  0  0  0  0  0  0  0  0  0  0  0
   29.9890  -96.7416  204.8251 H   0  0  0  0  0  0  0  0  0  0  0  0
   27.6167  -93.9997  204.2601 H   0  0  0  0  0  0  0  0  0  0  0  0
   29.0570  -89.6360  203.8290 C   0  0  0  0  0  0  0  0  0  0  0  0
   29.1310  -89.2070  202.4600 C   0  0  0  0  0  0  0  0  0  0  0  0
   29.3140  -91.0040  204.1880 C   0  0  0  0  0  0  0  0  0  0  0  0
   29.7300  -91.5100  201.7340 C   0  0  0  0  0  0  0  0  0  0  0  0
   34.5760 -105.3490  201.4320 C   0  0  0  0  0  0  0  0  0  0  0  0
   34.3400 -103.2880  197.5360 C   0  0  0  0  0  0  0  0  0  0  0  0
   29.4670  -90.1300  201.3960 C   0  0  0  0  0  0  0  0  0  0  0  0
   33.9200 -104.9190  198.8220 C   0  0  0  0  0  0  0  0  0  0  0  0
   34.6390 -104.0370  199.5800 C   0  0  0  0  0  0  0  0  0  0  0  0
   33.5290 -106.1100  199.4580 C   0  0  0  0  0  0  0  0  0  0  0  0
   29.5390  -89.6520  199.9460 C   0  0  0  0  0  0  0  0  0  0  0  0
   36.4450  -99.6100  198.5060 C   0  0  1  0  0  0  0  0  0  0  0  0
   29.7270  -95.6390  203.1800 C   0  0  1  0  0  0  0  0  0  0  0  0
   36.4550 -101.0500  198.0900 C   0  0  2  0  0  0  0  0  0  0  0  0
   28.9840  -94.3020  202.8470 C   0  0  2  0  0  0  0  0  0  0  0  0
   35.2020  -99.4640  199.3640 C   0  0  1  0  0  0  0  0  0  0  0  0
   31.1810  -95.2780  203.4370 C   0  0  1  0  0  0  0  0  0  0  0  0
   35.7020 -101.7460  199.1770 C   0  0  2  0  0  0  0  0  0  0  0  0
   29.8920  -93.3540  203.5900 C   0  0  2  0  0  0  0  0  0  0  0  0
   34.2690  -98.3000  198.8350 C   0  0  1  0  0  0  0  0  0  0  0  0
   32.1710  -95.8280  202.4660 C   0  0  1  0  0  0  0  0  0  0  0  0
   34.9960 -104.1920  200.9100 N   0  0  0  0  0  0  0  0  0  0  0  0
   33.8700 -106.2890  200.7690 N   0  0  0  0  0  0  0  0  0  0  0  0
   33.7420 -104.4510  197.5470 N   0  0  0  0  0  0  0  0  0  0  0  0
   34.9200 -102.9600  198.7600 N   0  0  0  0  0  0  0  0  0  0  0  0
   29.6530  -91.9500  203.1330 N   0  3  0  0  0  0  0  0  0  0  0  0
   32.8360 -107.0300  198.8170 N   0  0  0  0  0  0  0  0  0  0  0  0
   30.0910  -90.5480  199.0500 N   0  0  0  0  0  0  0  0  0  0  0  0
   39.8540 -102.2420  197.0370 O   0  5  0  0  0  0  0  0  0  0  0  0
   37.7380 -102.9130  195.9670 O   0  5  0  0  0  0  0  0  0  0  0  0
   35.6760  -94.8620  198.6690 O   0  5  0  0  0  0  0  0  0  0  0  0
   35.7870  -94.4590  202.4550 O   0  5  0  0  0  0  0  0  0  0  0  0
   29.1560  -88.5790  199.5710 O   0  0  0  0  0  0  0  0  0  0  0  0
   38.5030 -100.5400  195.7880 O   0  0  0  0  0  0  0  0  0  0  0  0
   33.2210  -95.3190  198.6920 O   0  0  0  0  0  0  0  0  0  0  0  0
   33.8970  -93.5380  201.1750 O   0  0  0  0  0  0  0  0  0  0  0  0
   34.7960 -100.7910  199.7080 O   0  0  0  0  0  0  0  0  0  0  0  0
   31.2040  -93.8270  203.2640 O   0  0  0  0  0  0  0  0  0  0  0  0
   37.6320  -99.2490  199.2430 O   0  0  0  0  0  0  0  0  0  0  0  0
   29.2380  -96.2680  204.3650 O   0  0  0  0  0  0  0  0  0  0  0  0
   27.6490  -94.3500  203.3240 O   0  0  0  0  0  0  0  0  0  0  0  0
   37.7940 -101.5950  197.9850 O   0  0  0  0  0  0  0  0  0  0  0  0
   35.0150  -97.1320  198.5940 O   0  0  0  0  0  0  0  0  0  0  0  0
   33.4620  -95.4410  202.8300 O   0  0  0  0  0  0  0  0  0  0  0  0
   34.6790  -95.8780  200.7220 O   0  0  0  0  0  0  0  0  0  0  0  0
   38.5260 -101.8090  196.5730 P   0  0  0  0  0  0  0  0  0  0  0  0
   34.5720  -95.6980  199.1340 P   0  0  1  0  0  0  0  0  0  0  0  0
   34.4910  -94.7410  201.8180 P   0  0  2  0  0  0  0  0  0  0  0  0
  1 26  1  0  0  0  0
  2 27  1  0  0  0  0
  3 28  1  0  0  0  0
  4 29  1  0  0  0  0
  5 30  1  0  0  0  0
  6 31  1  0  0  0  0
  7 37  1  0  0  0  0
  8 38  1  0  0  0  0
  9 39  1  0  0  0  0
 10 40  1  0  0  0  0
 11 41  1  0  0  0  0
 12 42  1  0  0  0  0
 13 43  1  0  0  0  0
 14 44  1  0  0  0  0
 15 45  1  0  0  0  0
 16 45  1  0  0  0  0
 17 46  1  0  0  0  0
 18 46  1  0  0  0  0
 19 52  1  0  0  0  0
 20 52  1  0  0  0  0
 21 53  1  0  0  0  0
 22 53  1  0  0  0  0
 23 64  1  0  0  0  0
 24 65  1  0  0  0  0
 25 66  1  0  0  0  0
 26 27  1  0  0  0  0
 26 28  2  0  0  0  0
 27 32  2  0  0  0  0
 28 51  1  0  0  0  0
 29 32  1  0  0  0  0
 29 51  2  0  0  0  0
 30 47  1  0  0  0  0
 30 48  2  0  0  0  0
 31 49  2  0  0  0  0
 31 50  1  0  0  0  0
 32 36  1  0  0  0  0
 33 34  1  0  0  0  0
 33 35  2  0  0  0  0
 33 49  1  0  0  0  0
 34 47  2  0  0  0  0
 34 50  1  0  0  0  0
 35 48  1  0  0  0  0
 35 52  1  0  0  0  0
 36 53  1  0  0  0  0
 36 58  2  0  0  0  0
 37 39  1  0  0  0  0
 37 41  1  0  0  0  0
 37 64  1  0  0  0  0
 38 40  1  0  0  0  0
 38 42  1  0  0  0  0
 38 65  1  0  0  0  0
 39 43  1  0  0  0  0
 39 67  1  0  0  0  0
 40 44  1  0  0  0  0
 40 66  1  0  0  0  0
 41 45  1  0  0  0  0
 41 62  1  0  0  0  0
 42 46  1  0  0  0  0
 42 63  1  0  0  0  0
 43 50  1  0  0  0  0
 43 62  1  0  0  0  0
 44 51  1  0  0  0  0
 44 63  1  0  0  0  0
 45 68  1  0  0  0  0
 46 69  1  0  0  0  0
 54 71  1  0  0  0  0
 55 71  1  0  0  0  0
 56 72  1  0  0  0  0
 57 73  1  0  0  0  0
 59 71  2  0  0  0  0
 60 72  2  0  0  0  0
 61 73  2  0  0  0  0
 67 71  1  0  0  0  0
 68 72  1  0  0  0  0
 69 73  1  0  0  0  0
 70 72  1  0  0  0  0
 70 73  1  0  0  0  0
M  CHG  5  56  -1  57  -1  51   1  54  -1  55  -1
M  END
> <scpdb_id>
2vuu_4

$$$$
