@<TRIPOS>MOLECULE
3o8g_O8G_1_ligand
   36    38     1     0     0
SMALL
NO_CHARGES


@<TRIPOS>ATOM
     1 C1          33.5260    71.9530    10.9420 C.3          1 O8G217   0.0000
     2 C4          33.5350    73.3910    10.4800 C.3          1 O8G217   0.0000
     3 N7          32.5430    74.2860    11.1860 N.am         1 O8G217   0.0000
     4 C8          32.1080    73.9630    12.6280 C.3          1 O8G217   0.0000
     5 C11         32.1780    72.4660    12.9940 C.3          1 O8G217   0.0000
     6 C14         33.5050    71.8790    12.5000 C.3          1 O8G217   0.0000
     7 C16         32.0750    75.4260    10.6050 C.2          1 O8G217   0.0000
     8 O17         32.4000    75.7790     9.4590 O.2          1 O8G217   0.0000
     9 C18         31.0870    76.3590    11.3450 C.3          1 O8G217   0.0000
    10 N21         33.4510    69.3670    12.2690 N.2          1 O8G217   0.0000
    11 C22         33.5700    70.4560    13.0110 C.2          1 O8G217   0.0000
    12 O23         33.7250    70.1320    14.3310 O.2          1 O8G217   0.0000
    13 N24         33.6800    68.7530    14.3610 N.2          1 O8G217   0.0000
    14 C25         33.5130    68.3280    13.1060 C.2          1 O8G217   0.0000
    15 C26         33.4380    66.9920    12.7280 C.2          1 O8G217   0.0000
    16 C27         33.4810    66.4560    11.5080 C.2          1 O8G217   0.0000
    17 C29         33.3460    65.1090    11.5110 C.2          1 O8G217   0.0000
    18 C31         33.2130    64.4960    12.7030 C.2          1 O8G217   0.0000
    19 S33         33.2400    65.7390    13.8520 S.3          1 O8G217   0.0000
    20 N34         30.4250    77.2490    10.3440 N.2          1 O8G217   0.0000
    21 N36         30.9770    78.1920    10.0460 N.1          1 O8G217   1.0000
    22 N37         31.5150    79.1250     9.7240 N.2          1 O8G217  -1.0000
    23 H1          34.3462    71.4931    10.6019 H            1 O8G217   0.0000
    24 H2          32.7134    71.4963    10.5800 H            1 O8G217   0.0000
    25 H3          33.3269    73.4055     9.5020 H            1 O8G217   0.0000
    26 H4          34.4515    73.7613    10.6313 H            1 O8G217   0.0000
    27 H5          31.1637    74.2701    12.7461 H            1 O8G217   0.0000
    28 H6          32.7031    74.4664    13.2545 H            1 O8G217   0.0000
    29 H7          31.4178    71.9814    12.5612 H            1 O8G217   0.0000
    30 H8          32.1172    72.3627    13.9868 H            1 O8G217   0.0000
    31 H9          34.2677    72.4071    12.8735 H            1 O8G217   0.0000
    32 H10         31.5841    76.9142    12.0118 H            1 O8G217   0.0000
    33 H11         30.3961    75.8110    11.8165 H            1 O8G217   0.0000
    34 H12         33.6010    66.9950    10.6743 H            1 O8G217   0.0000
    35 H13         33.3451    64.5872    10.6579 H            1 O8G217   0.0000
    36 H14         33.1184    63.5151    12.8731 H            1 O8G217   0.0000
@<TRIPOS>BOND
     1    1    2       1
     2    1    6       1
     3    2    3       1
     4    3    4       1
     5    3    7      am
     6    4    5       1
     7    5    6       1
     8    6   11       1
     9    7    8       2
    10    7    9       1
    11    9   20       1
    12   10   11       2
    13   10   14       1
    14   11   12       1
    15   12   13       1
    16   13   14       2
    17   14   15       1
    18   15   16       2
    19   15   19       1
    20   16   17       1
    21   17   18       2
    22   18   19       1
    23   20   21       2
    24   21   22       2
    25    1   23       1
    26    1   24       1
    27    2   25       1
    28    2   26       1
    29    4   27       1
    30    4   28       1
    31    5   29       1
    32    5   30       1
    33    6   31       1
    34    9   32       1
    35    9   33       1
    36   16   34       1
    37   17   35       1
    38   18   36       1
@<TRIPOS>SUBSTRUCTURE
     1 O8G217      1 GROUP             4 A     O8G     0 **** O8G A 217
