3lmp_CEK_1_ligand
  -OEChem-08111718373D

 58 62  0     1  0  0  0  0  0999 V2000
    5.0688   45.0470   57.9487 H   0  0  0  0  0  0  0  0  0  0  0  0
    7.3367   44.3228   58.0910 H   0  0  0  0  0  0  0  0  0  0  0  0
    7.0541   51.2260   56.9218 H   0  0  0  0  0  0  0  0  0  0  0  0
    4.5529   47.3445   57.5538 H   0  0  0  0  0  0  0  0  0  0  0  0
    9.1219   45.8831   57.8488 H   0  0  0  0  0  0  0  0  0  0  0  0
    5.2965   49.6336   57.1741 H   0  0  0  0  0  0  0  0  0  0  0  0
    9.3313   50.5512   57.0612 H   0  0  0  0  0  0  0  0  0  0  0  0
   10.6978   45.8090   63.5191 H   0  0  0  0  0  0  0  0  0  0  0  0
   15.3323   50.9475   61.1351 H   0  0  0  0  0  0  0  0  0  0  0  0
   14.3669   50.8449   66.7198 H   0  0  0  0  0  0  0  0  0  0  0  0
   15.7033   50.8308   67.6582 H   0  0  0  0  0  0  0  0  0  0  0  0
   15.0695   52.2514   67.1612 H   0  0  0  0  0  0  0  0  0  0  0  0
   15.8408   46.7716   62.6435 H   0  0  0  0  0  0  0  0  0  0  0  0
   16.6992   47.8985   63.4558 H   0  0  0  0  0  0  0  0  0  0  0  0
   15.7547   46.8461   64.2725 H   0  0  0  0  0  0  0  0  0  0  0  0
    8.4406   44.7624   60.7980 H   0  0  0  0  0  0  0  0  0  0  0  0
    9.5953   44.1898   61.8008 H   0  0  0  0  0  0  0  0  0  0  0  0
    8.6607   45.4461   62.2646 H   0  0  0  0  0  0  0  0  0  0  0  0
   10.7301   47.7134   56.6454 H   0  0  0  0  0  0  0  0  0  0  0  0
   10.9706   49.0818   57.5035 H   0  0  0  0  0  0  0  0  0  0  0  0
   10.1489   46.7570   58.9813 H   0  0  0  0  0  0  0  0  0  0  0  0
   13.3906   47.1382   65.4458 H   0  0  0  0  0  0  0  0  0  0  0  0
    5.8090   45.7110   57.8430 C   0  0  0  0  0  0  0  0  0  0  0  0
    7.1330   45.2880   57.9270 C   0  0  0  0  0  0  0  0  0  0  0  0
    7.2760   50.2650   57.0870 C   0  0  0  0  0  0  0  0  0  0  0  0
    5.5070   47.0510   57.6130 C   0  0  0  0  0  0  0  0  0  0  0  0
    8.1760   46.2010   57.7840 C   0  0  0  0  0  0  0  0  0  0  0  0
    6.2490   49.3350   57.2340 C   0  0  0  0  0  0  0  0  0  0  0  0
    8.6080   49.8690   57.1680 C   0  0  0  0  0  0  0  0  0  0  0  0
   11.3580   46.3380   62.9860 C   0  0  0  0  0  0  0  0  0  0  0  0
    6.5400   47.9910   57.4640 C   0  0  0  0  0  0  0  0  0  0  0  0
    7.9170   47.5620   57.5500 C   0  0  0  0  0  0  0  0  0  0  0  0
   12.1030   47.2470   60.8360 C   0  0  0  0  0  0  0  0  0  0  0  0
   13.3760   47.6470   62.8830 C   0  0  0  0  0  0  0  0  0  0  0  0
    8.9520   48.5290   57.3970 C   0  0  0  0  0  0  0  0  0  0  0  0
   13.2080   47.8180   61.5070 C   0  0  0  0  0  0  0  0  0  0  0  0
   11.1650   46.4950   61.5950 C   0  0  0  0  0  0  0  0  0  0  0  0
   12.4550   46.9100   63.6240 C   0  0  0  0  0  0  0  0  0  0  0  0
   15.2970   50.4520   62.0030 C   0  0  0  0  0  0  0  0  0  0  0  0
   15.5580   50.5930   64.4030 C   0  0  0  0  0  0  0  0  0  0  0  0
   15.8010   51.0400   63.1300 C   0  0  0  0  0  0  0  0  0  0  0  0
   14.7470   49.2040   62.0370 C   0  0  0  0  0  0  0  0  0  0  0  0
   14.6580   49.3320   64.5750 C   0  0  0  0  0  0  0  0  0  0  0  0
   11.9920   47.4800   59.3280 C   0  0  0  0  0  0  0  0  0  0  0  0
   16.1160   51.2530   65.6560 C   0  0  0  0  0  0  0  0  0  0  0  0
   14.6510   48.3690   63.3260 C   0  0  1  0  0  0  0  0  0  0  0  0
   15.2380   51.2990   66.9070 C   0  0  0  0  0  0  0  0  0  0  0  0
   15.8420   47.3840   63.4340 C   0  0  0  0  0  0  0  0  0  0  0  0
    9.1190   45.0120   61.4890 C   0  0  0  0  0  0  0  0  0  0  0  0
   10.4680   48.2180   57.4680 C   0  0  1  0  0  0  0  0  0  0  0  0
   10.8290   47.4120   58.6520 N   0  0  0  0  0  0  0  0  0  0  0  0
   14.0110   49.0930   65.5930 O   0  0  0  0  0  0  0  0  0  0  0  0
   12.9970   47.7110   58.6580 O   0  0  0  0  0  0  0  0  0  0  0  0
   17.2390   51.7540   65.6560 O   0  0  0  0  0  0  0  0  0  0  0  0
   14.2220   48.5820   60.9340 O   0  0  0  0  0  0  0  0  0  0  0  0
   12.6070   46.7340   64.9740 O   0  0  0  0  0  0  0  0  0  0  0  0
   16.5890   52.1440   62.9430 O   0  5  0  0  0  0  0  0  0  0  0  0
   10.0770   45.9370   60.9140 O   0  0  0  0  0  0  0  0  0  0  0  0
  1 23  1  0  0  0  0
  2 24  1  0  0  0  0
  3 25  1  0  0  0  0
  4 26  1  0  0  0  0
  5 27  1  0  0  0  0
  6 28  1  0  0  0  0
  7 29  1  0  0  0  0
  8 30  1  0  0  0  0
  9 39  1  0  0  0  0
 10 47  1  0  0  0  0
 11 47  1  0  0  0  0
 12 47  1  0  0  0  0
 13 48  1  0  0  0  0
 14 48  1  0  0  0  0
 15 48  1  0  0  0  0
 16 49  1  0  0  0  0
 17 49  1  0  0  0  0
 18 49  1  0  0  0  0
 19 50  1  0  0  0  0
 20 50  1  0  0  0  0
 21 51  1  0  0  0  0
 22 56  1  0  0  0  0
 23 24  1  0  0  0  0
 23 26  2  0  0  0  0
 24 27  2  0  0  0  0
 25 28  1  0  0  0  0
 25 29  2  0  0  0  0
 26 31  1  0  0  0  0
 27 32  1  0  0  0  0
 28 31  2  0  0  0  0
 29 35  1  0  0  0  0
 30 37  1  0  0  0  0
 30 38  2  0  0  0  0
 31 32  1  0  0  0  0
 32 35  2  0  0  0  0
 33 36  1  0  0  0  0
 33 37  2  0  0  0  0
 33 44  1  0  0  0  0
 34 36  2  0  0  0  0
 34 38  1  0  0  0  0
 34 46  1  0  0  0  0
 35 50  1  0  0  0  0
 36 55  1  0  0  0  0
 37 58  1  0  0  0  0
 38 56  1  0  0  0  0
 39 41  1  0  0  0  0
 39 42  2  0  0  0  0
 40 41  2  0  0  0  0
 40 43  1  0  0  0  0
 40 45  1  0  0  0  0
 41 57  1  0  0  0  0
 42 46  1  0  0  0  0
 42 55  1  0  0  0  0
 43 46  1  0  0  0  0
 43 52  2  0  0  0  0
 44 51  1  0  0  0  0
 44 53  2  0  0  0  0
 45 47  1  0  0  0  0
 45 54  2  0  0  0  0
 46 48  1  0  0  0  0
 49 58  1  0  0  0  0
 50 51  1  0  0  0  0
M  CHG  1  57  -1
M  END
> <scpdb_id>
3lmp_1

$$$$
