#    Name: 23921
#    Modification time : Tue Aug  8 19:55:36 2017

@<TRIPOS>MOLECULE
23921
   49     0     9     0     0
SMALL
NO_CHARGES


@<TRIPOS>ATOM
      1 N          28.3630   -4.4260   24.3720 N.am      1 SEL1        0.0000 
      2 O          28.2040   -4.5810   26.6430 O.2       2 ALL2        0.0000 
      3 CA         27.1860   -2.3790   27.3990 C.3       3 GLL5        0.0000 
      4 CA         28.3330    0.7390   25.7020 C.3       3 GLL5        0.0000 
      5 CA         25.3830    3.7430   27.3630 C.3       3 GLL5        0.0000 
      6 CA         23.8670    3.8710   27.2060 C.3       3 GLL5        0.0000 
      7 CA         24.1310    5.0860   29.4190 C.3       3 GLL5        0.0000 
      8 CA         19.3210    3.3100   29.3510 C.3       3 GLL5        0.0000 
      9 CA         21.5570    3.8380   30.1400 C.3       3 GLL5        0.0000 
     10 CA         26.1480    0.0710   24.8890 C.3       3 GLL5        0.0000 
     11 CA         28.0670   -1.5840   24.8320 C.3       3 GLL5        0.0000 
     12 CA         27.8120    1.9950   26.0010 C.3       3 GLL5        0.0000 
     13 CA         26.4660    2.2960   25.7600 C.3       3 GLL5        0.0000 
     14 N          31.0940   -3.2790   24.7250 N.am      4 SEP1        0.0000 
     15 O          30.7720   -5.6170   25.8840 O.2       5 ALP2        0.0000 
     16 CA         26.0620    0.4100   28.6880 C.3       6 GLP5        0.0000 
     17 CA         24.6140   -3.0740   24.5870 C.3       6 GLP5        0.0000 
     18 CA         29.1320    3.4740   27.9950 C.3       6 GLP5        0.0000 
     19 CA         28.7750    5.1090   27.3600 C.3       6 GLP5        0.0000 
     20 CA         24.6390    0.4430   29.7710 C.3       6 GLP5        0.0000 
     21 CA         21.5270    7.0100   26.5370 C.3       6 GLP5        0.0000 
     22 CA         24.1820    4.1140   33.7430 C.3       6 GLP5        0.0000 
     23 CA         23.3790    8.3920   31.9880 C.3       6 GLP5        0.0000 
     24 CA         26.6860    7.6530   32.0280 C.3       6 GLP5        0.0000 
     25 CA         19.2920    7.7670   28.7350 C.3       6 GLP5        0.0000 
     26 CA         28.3820   -0.3030   21.1860 C.3       6 GLP5        0.0000 
     27 CA         31.2450    3.2240   25.1690 C.3       6 GLP5        0.0000 
     28 CA         28.4480    3.4530   22.6560 C.3       6 GLP5        0.0000 
     29 N          29.7285   -3.8525   24.5485 N.am      7 SEC1        0.0000 
     30 O          29.4880   -5.0990   26.2635 O.2       8 ALC2        0.0000 
     31 CA         26.6240   -0.9845   28.0435 C.3       9 GLC5        0.0000 
     32 CA         25.9000   -2.7265   25.9930 C.3       9 GLC5        0.0000 
     33 CA         28.7325    2.1065   26.8485 C.3       9 GLC5        0.0000 
     34 CA         25.7225    2.0765   28.0255 C.3       9 GLC5        0.0000 
     35 CA         27.0790    4.4260   27.3615 C.3       9 GLC5        0.0000 
     36 CA         24.2530    2.1570   28.4885 C.3       9 GLC5        0.0000 
     37 CA         22.6970    5.4405   26.8715 C.3       9 GLC5        0.0000 
     38 CA         24.1565    4.6000   31.5810 C.3       9 GLC5        0.0000 
     39 CA         22.8290    6.0480   27.9780 C.3       9 GLC5        0.0000 
     40 CA         23.7550    6.7390   30.7035 C.3       9 GLC5        0.0000 
     41 CA         25.4085    6.3695   30.7235 C.3       9 GLC5        0.0000 
     42 CA         19.3065    5.5385   29.0430 C.3       9 GLC5        0.0000 
     43 CA         22.8695    3.9760   31.9415 C.3       9 GLC5        0.0000 
     44 CA         25.7894   -1.7447   24.7627 C.3       9 GLC5        0.0000 
     45 CA         27.6734   -0.3593   23.0622 C.3       9 GLC5        0.0000 
     46 CA         28.0463    3.2185   26.7790 C.3       9 GLC5        0.0000 
     47 CA         29.6588    2.2955   25.5102 C.3       9 GLC5        0.0000 
     48 CA         27.9741    2.5442   24.2258 C.3       9 GLC5        0.0000 
     49 CA         26.4354    0.7407   27.0522 C.3       9 GLC5        0.0000 
@<TRIPOS>BOND
@<TRIPOS>SUBSTRUCTURE
     1 SEL1        1 GROUP        1 Z    SEL  0     ROOT SEL Z 0
     2 ALL2        2 GROUP        1 Z    ALL  0     **** ALL Z 1
     3 GLL5        3 GROUP        1 Z    GLL  0     **** GLL Z 4
     4 SEP1       14 GROUP        1 Z    SEP  0     **** SEP Z 7
     5 ALP2       15 GROUP        1 Z    ALP  0     **** ALP Z 8
     6 GLP5       16 GROUP        1 Z    GLP  0     **** GLP Z 11
     7 SEC1       29 GROUP        1 Z    SEC  0     **** SEC Z 14
     8 ALC2       30 GROUP        1 Z    ALC  0     **** ALC Z 15
     9 GLC5       31 GROUP        1 Z    GLC  0     **** GLC Z 18
@<TRIPOS>SET

