#    Name: 18994
#    Modification time : Tue Aug  8 20:41:08 2017

@<TRIPOS>MOLECULE
18994
   41     0     6     0     0
SMALL
NO_CHARGES


@<TRIPOS>ATOM
      1 N           3.5000   30.0820   15.2570 N.am      1 SEL1        0.0000 
      2 CA          1.3840   38.7830   11.3970 C.3       2 GLL5        0.0000 
      3 CA         -0.3750   38.7690   13.0650 C.3       2 GLL5        0.0000 
      4 CA          0.0000   35.6320   15.2010 C.3       2 GLL5        0.0000 
      5 CA          1.5860   31.5710   15.4640 C.3       2 GLL5        0.0000 
      6 CA          2.9460   31.2970   15.0720 C.3       2 GLL5        0.0000 
      7 CA          1.6750   37.4570   11.6730 C.3       2 GLL5        0.0000 
      8 CA          0.3620   39.4460   12.0820 C.3       2 GLL5        0.0000 
      9 CA         -0.0780   37.4240   13.3400 C.3       2 GLL5        0.0000 
     10 CA          1.3280   35.2550   14.3950 C.3       2 GLL5        0.0000 
     11 CA          1.8380   33.8290   14.6510 C.3       2 GLL5        0.0000 
     12 CA          3.2020   33.5230   14.2670 C.3       2 GLL5        0.0000 
     13 CA          3.7470   32.2670   14.4850 C.3       2 GLL5        0.0000 
     14 N           5.3422   28.1335   16.4705 N.am      3 SEP1        0.0000 
     15 CA          5.3620   39.6530   10.9040 C.3       4 GLP5        0.0000 
     16 CA         -2.5640   39.7370    9.8120 C.3       4 GLP5        0.0000 
     17 CA          0.6040   39.0060   17.2760 C.3       4 GLP5        0.0000 
     18 CA          0.0940   28.3840   17.3620 C.3       4 GLP5        0.0000 
     19 CA          1.5490   27.3760   15.5870 C.3       4 GLP5        0.0000 
     20 CA          5.1600   37.1510   11.8320 C.3       4 GLP5        0.0000 
     21 CA         -1.4590   39.0180    9.0520 C.3       4 GLP5        0.0000 
     22 CA         -2.4820   35.3480   10.4720 C.3       4 GLP5        0.0000 
     23 CA          2.5880   36.2580   17.5230 C.3       4 GLP5        0.0000 
     24 CA          4.7920   35.4880   16.4800 C.3       4 GLP5        0.0000 
     25 CA          6.4300   33.7800   13.0070 C.3       4 GLP5        0.0000 
     26 CA          3.6710   40.1140   14.4780 C.3       4 GLP5        0.0000 
     27 N           4.4211   29.1078   15.8637 N.am      5 SEC1        0.0000 
     28 CA          3.3730   39.2180   11.1505 C.3       6 GLC5        0.0000 
     29 CA         -1.4695   39.2530   11.4385 C.3       6 GLC5        0.0000 
     30 CA          0.3020   37.3190   16.2385 C.3       6 GLC5        0.0000 
     31 CA          0.8400   29.9775   16.4130 C.3       6 GLC5        0.0000 
     32 CA          2.2475   29.3365   15.3295 C.3       6 GLC5        0.0000 
     33 CA          3.2367   37.1340   11.9953 C.3       6 GLC5        0.0000 
     34 CA         -0.2566   38.9005   10.4303 C.3       6 GLC5        0.0000 
     35 CA          0.1888   38.5513   15.2393 C.3       6 GLC5        0.0000 
     36 CA         -1.0225   36.2242   11.7320 C.3       6 GLC5        0.0000 
     37 CA          1.6260   35.8508   16.1605 C.3       6 GLC5        0.0000 
     38 CA          1.9748   34.7815   16.2540 C.3       6 GLC5        0.0000 
     39 CA          4.1333   34.1915   15.4280 C.3       6 GLC5        0.0000 
     40 CA          4.9522   33.3375   13.6915 C.3       6 GLC5        0.0000 
     41 CA          2.0703   39.5296   13.3345 C.3       6 GLC5        0.0000 
@<TRIPOS>BOND
@<TRIPOS>SUBSTRUCTURE
     1 SEL1        1 GROUP        1 Z    SEL  0     ROOT SEL Z 0
     2 GLL5        2 GROUP        1 Z    GLL  0     **** GLL Z 4
     3 SEP1       14 GROUP        1 Z    SEP  0     **** SEP Z 7
     4 GLP5       15 GROUP        1 Z    GLP  0     **** GLP Z 11
     5 SEC1       27 GROUP        1 Z    SEC  0     **** SEC Z 14
     6 GLC5       28 GROUP        1 Z    GLC  0     **** GLC Z 18
@<TRIPOS>SET

