#    Name: 10660
#    Modification time : Tue Aug  8 19:39:27 2017

@<TRIPOS>MOLECULE
10660
   47     0    15     0     0
SMALL
NO_CHARGES


@<TRIPOS>ATOM
      1 N          19.7330   15.1560    8.7960 N.am      1 SEL1        0.0000 
      2 N          17.6960   18.7390    8.0700 N.am      1 SEL1        0.0000 
      3 N          19.9070   17.5310    8.3710 N.am      1 SEL1        0.0000 
      4 N          17.8510   16.2860    7.5850 N.am      1 SEL1        0.0000 
      5 N          20.5270   19.7010    6.2910 N.am      1 SEL1        0.0000 
      6 N          18.2510   18.4940    0.5990 N.am      1 SEL1        0.0000 
      7 N          24.1000   18.4630   -0.7000 N.am      1 SEL1        0.0000 
      8 O          25.9580   15.5880    1.4330 O.2       2 ALL2        0.0000 
      9 NZ         17.5050   13.9760    8.4790 N.4       3 LYL3        0.0000 
     10 NZ         17.6960   18.7390    8.0700 N.4       3 LYL3        0.0000 
     11 CA         21.6510   19.7080    0.8010 C.3       4 GLL5        0.0000 
     12 CA         19.6850   19.8210    2.0650 C.3       4 GLL5        0.0000 
     13 CA         20.4750   19.1820   -0.0250 C.3       4 GLL5        0.0000 
     14 CZ         24.6978   17.5127    0.0308 C.ar      5 PHL6        0.0000 
     15 N          22.0670   16.9220    9.6620 N.am      6 SEP1        0.0000 
     16 N          17.3560   20.9740    6.7580 N.am      6 SEP1        0.0000 
     17 N          18.6500   21.1150    9.1350 N.am      6 SEP1        0.0000 
     18 N          16.4920   17.2650   10.4700 N.am      6 SEP1        0.0000 
     19 N          21.1370   19.6630    9.7690 N.am      6 SEP1        0.0000 
     20 N          15.9880   16.3200    5.8280 N.am      6 SEP1        0.0000 
     21 N          22.4470   21.6080    5.0460 N.am      6 SEP1        0.0000 
     22 N          22.7870   21.0160    7.9280 N.am      6 SEP1        0.0000 
     23 N          15.7670   19.6770    0.7910 N.am      6 SEP1        0.0000 
     24 N          24.5490   21.1350   -2.2250 N.am      6 SEP1        0.0000 
     25 O          28.5030   14.7190    0.8710 O.2       7 ALP2        0.0000 
     26 NZ         16.4920   17.2650   10.4700 N.4       8 LYP3        0.0000 
     27 CA         25.0950   20.7660    2.5480 C.3       9 GLP5        0.0000 
     28 CA         19.2520   23.4600    3.3690 C.3       9 GLP5        0.0000 
     29 CA         21.7290   18.4990   -3.2500 C.3       9 GLP5        0.0000 
     30 CZ         26.1895   19.9102    2.4118 C.ar     10 PHP6        0.0000 
     31 N          20.9000   16.0390    9.2290 N.am     11 SEC1        0.0000 
     32 N          17.5260   19.8565    7.4140 N.am     11 SEC1        0.0000 
     33 N          18.1730   19.9270    8.6025 N.am     11 SEC1        0.0000 
     34 N          17.0940   18.0020    9.2700 N.am     11 SEC1        0.0000 
     35 N          20.5220   18.5970    9.0700 N.am     11 SEC1        0.0000 
     36 N          16.9195   16.3030    6.7065 N.am     11 SEC1        0.0000 
     37 N          21.4870   20.6545    5.6685 N.am     11 SEC1        0.0000 
     38 N          21.6570   20.3585    7.1095 N.am     11 SEC1        0.0000 
     39 N          17.0090   19.0855    0.6950 N.am     11 SEC1        0.0000 
     40 N          24.3245   19.7990   -1.4625 N.am     11 SEC1        0.0000 
     41 O          27.2305   15.1535    1.1520 O.2      12 ALC2        0.0000 
     42 NZ         16.9985   15.6205    9.4745 N.4      13 LYC3        0.0000 
     43 NZ         17.0940   18.0020    9.2700 N.4      13 LYC3        0.0000 
     44 CA         23.3730   20.2370    1.6745 C.3      14 GLC5        0.0000 
     45 CA         19.3618   21.5553    3.0743 C.3      14 GLC5        0.0000 
     46 CA         21.3960   18.9720   -1.4310 C.3      14 GLC5        0.0000 
     47 CZ         25.4437   18.7114    1.2213 C.ar     15 PHC6        0.0000 
@<TRIPOS>BOND
@<TRIPOS>SUBSTRUCTURE
     1 SEL1        1 GROUP        1 Z    SEL  0     ROOT SEL Z 0
     2 ALL2        8 GROUP        1 Z    ALL  0     **** ALL Z 1
     3 LYL3        9 GROUP        1 Z    LYL  0     **** LYL Z 2
     4 GLL5       11 GROUP        1 Z    GLL  0     **** GLL Z 4
     5 PHL6       14 GROUP        1 Z    PHL  0     **** PHL Z 6
     6 SEP1       15 GROUP        1 Z    SEP  0     **** SEP Z 7
     7 ALP2       25 GROUP        1 Z    ALP  0     **** ALP Z 8
     8 LYP3       26 GROUP        1 Z    LYP  0     **** LYP Z 9
     9 GLP5       27 GROUP        1 Z    GLP  0     **** GLP Z 11
    10 PHP6       30 GROUP        1 Z    PHP  0     **** PHP Z 13
    11 SEC1       31 GROUP        1 Z    SEC  0     **** SEC Z 14
    12 ALC2       41 GROUP        1 Z    ALC  0     **** ALC Z 15
    13 LYC3       42 GROUP        1 Z    LYC  0     **** LYC Z 16
    14 GLC5       44 GROUP        1 Z    GLC  0     **** GLC Z 18
    15 PHC6       47 GROUP        1 Z    PHC  0     **** PHC Z 20
@<TRIPOS>SET

