1xp8_AGS_1_ligand
  -OEChem-08111718373D

 45 47  0     1  0  0  0  0  0999 V2000
   25.5216   18.0865   -2.0726 H   0  0  0  0  0  0  0  0  0  0  0  0
   21.8474   18.0786    3.0809 H   0  0  0  0  0  0  0  0  0  0  0  0
   19.9413   17.7985    1.4864 H   0  0  0  0  0  0  0  0  0  0  0  0
   20.7598   18.4548   -0.6496 H   0  0  0  0  0  0  0  0  0  0  0  0
   19.0992   20.5585    1.7288 H   0  0  0  0  0  0  0  0  0  0  0  0
   22.1494   20.4130    0.2965 H   0  0  0  0  0  0  0  0  0  0  0  0
   19.3667   20.2908    4.0692 H   0  0  0  0  0  0  0  0  0  0  0  0
   18.2978   19.2006    3.4897 H   0  0  0  0  0  0  0  0  0  0  0  0
   26.7634   15.1390    1.0461 H   0  0  0  0  0  0  0  0  0  0  0  0
   25.6225   15.3212    2.3365 H   0  0  0  0  0  0  0  0  0  0  0  0
   18.2513   18.5889   -0.3965 H   0  0  0  0  0  0  0  0  0  0  0  0
   20.4167   21.0822   -0.6455 H   0  0  0  0  0  0  0  0  0  0  0  0
   25.1680   17.8410   -1.1700 C   0  0  0  0  0  0  0  0  0  0  0  0
   22.5260   17.9430    2.3590 C   0  0  0  0  0  0  0  0  0  0  0  0
   24.2110   17.1740    1.2710 C   0  0  0  0  0  0  0  0  0  0  0  0
   23.5980   18.1580    0.5060 C   0  0  0  0  0  0  0  0  0  0  0  0
   25.3330   16.5400    0.7460 C   0  0  0  0  0  0  0  0  0  0  0  0
   19.5850   18.6460    1.0930 C   0  0  1  0  0  0  0  0  0  0  0  0
   20.4750   19.1820   -0.0250 C   0  0  2  0  0  0  0  0  0  0  0  0
   19.6850   19.8210    2.0650 C   0  0  1  0  0  0  0  0  0  0  0  0
   21.6510   19.7080    0.8010 C   0  0  2  0  0  0  0  0  0  0  0  0
   19.2580   19.4800    3.4940 C   0  0  1  0  0  0  0  0  0  0  0  0
   24.1000   18.4630   -0.7000 N   0  0  0  0  0  0  0  0  0  0  0  0
   25.7770   16.9000   -0.4680 N   0  0  0  0  0  0  0  0  0  0  0  0
   23.5270   17.0670    2.4050 N   0  0  0  0  0  0  0  0  0  0  0  0
   22.5630   18.6120    1.2080 N   0  0  0  0  0  0  0  0  0  0  0  0
   25.9580   15.5880    1.4330 N   0  0  0  0  0  0  0  0  0  0  0  0
   17.5050   13.9760    8.4790 O   0  0  0  0  0  0  0  0  0  0  0  0
   19.7330   15.1560    8.7960 O   0  0  0  0  0  0  0  0  0  0  0  0
   20.5270   19.7010    6.2910 O   0  5  0  0  0  0  0  0  0  0  0  0
   19.9070   17.5310    8.3710 O   0  5  0  0  0  0  0  0  0  0  0  0
   21.2130   17.1820    5.9840 O   0  0  0  0  0  0  0  0  0  0  0  0
   17.6960   18.7390    8.0700 O   0  0  0  0  0  0  0  0  0  0  0  0
   21.0540   20.2600    1.9910 O   0  0  0  0  0  0  0  0  0  0  0  0
   18.2510   18.4940    0.5990 O   0  0  0  0  0  0  0  0  0  0  0  0
   19.8500   20.2620   -0.7240 O   0  0  0  0  0  0  0  0  0  0  0  0
   20.0510   18.4170    4.0310 O   0  0  0  0  0  0  0  0  0  0  0  0
   17.8510   16.2860    7.5850 O   0  0  0  0  0  0  0  0  0  0  0  0
   18.9990   17.9560    6.0730 O   0  0  0  0  0  0  0  0  0  0  0  0
   18.5510   14.8800    7.9480 P   0  0  0  0  0  0  0  0  0  0  0  0
   20.4720   18.4010    5.5870 P   0  0  2  0  0  0  0  0  0  0  0  0
   18.6400   17.6900    7.6230 P   0  0  2  0  0  0  0  0  0  0  0  0
   19.1390   14.2120    6.2290 S   0  0  0  0  0  0  0  0  0  0  0  0
   17.3530   13.2699    7.8619 H   0  0  0  0  0  0  0  0  0  0  0  0
   19.9503   16.0795    8.7463 H   0  0  0  0  0  0  0  0  0  0  0  0
  1 13  1  0  0  0  0
  2 14  1  0  0  0  0
  3 18  1  0  0  0  0
  4 19  1  0  0  0  0
  5 20  1  0  0  0  0
  6 21  1  0  0  0  0
  7 22  1  0  0  0  0
  8 22  1  0  0  0  0
  9 27  1  0  0  0  0
 10 27  1  0  0  0  0
 11 35  1  0  0  0  0
 12 36  1  0  0  0  0
 13 23  1  0  0  0  0
 13 24  2  0  0  0  0
 14 25  2  0  0  0  0
 14 26  1  0  0  0  0
 15 16  1  0  0  0  0
 15 17  2  0  0  0  0
 15 25  1  0  0  0  0
 16 23  2  0  0  0  0
 16 26  1  0  0  0  0
 17 24  1  0  0  0  0
 17 27  1  0  0  0  0
 18 19  1  0  0  0  0
 18 20  1  0  0  0  0
 18 35  1  0  0  0  0
 19 21  1  0  0  0  0
 19 36  1  0  0  0  0
 20 22  1  0  0  0  0
 20 34  1  0  0  0  0
 21 26  1  0  0  0  0
 21 34  1  0  0  0  0
 22 37  1  0  0  0  0
 28 40  1  0  0  0  0
 29 40  1  0  0  0  0
 30 41  1  0  0  0  0
 31 42  1  0  0  0  0
 32 41  2  0  0  0  0
 33 42  2  0  0  0  0
 37 41  1  0  0  0  0
 38 40  1  0  0  0  0
 38 42  1  0  0  0  0
 39 41  1  0  0  0  0
 39 42  1  0  0  0  0
 40 43  2  0  0  0  0
 28 44  1  0  0  0  0
 29 45  1  0  0  0  0
M  CHG  2  31  -1  30  -1
M  END
> <scpdb_id>
1xp8_1

$$$$
