#    Name: 7678
#    Modification time : Tue Aug  8 21:48:11 2017

@<TRIPOS>MOLECULE
7678
   53     0    12     0     0
SMALL
NO_CHARGES


@<TRIPOS>ATOM
      1 N          -8.8900   26.0790   -9.5990 N.am      1 SEL1        0.0000 
      2 N          -2.9550   25.3820   -4.8370 N.am      1 SEL1        0.0000 
      3 N          -6.3900   22.2240   -3.8020 N.am      1 SEL1        0.0000 
      4 N          -6.2500   23.6740   -1.8910 N.am      1 SEL1        0.0000 
      5 N          -3.0130   21.0260   -0.4880 N.am      1 SEL1        0.0000 
      6 N          -4.4000   22.0690   -2.2870 N.am      1 SEL1        0.0000 
      7 N          -1.9280   22.1410   -2.3950 N.am      1 SEL1        0.0000 
      8 NZ         -2.9550   25.3820   -4.8370 N.4       2 LYL3        0.0000 
      9 NZ         -3.0130   21.0260   -0.4880 N.4       2 LYL3        0.0000 
     10 CA         -8.3870   26.3670   -6.6250 C.3       3 GLL5        0.0000 
     11 CA         -8.8760   25.1120   -5.9260 C.3       3 GLL5        0.0000 
     12 CA         -7.9120   25.0240   -4.7520 C.3       3 GLL5        0.0000 
     13 CA         -6.4480   26.8050   -3.6330 C.3       3 GLL5        0.0000 
     14 CA         -7.7380   26.4820   -4.3620 C.3       3 GLL5        0.0000 
     15 Zn         -2.8850   23.4260   -0.7230 Zn        4 ZIL7        0.0000 
     16 Zn         -3.8480   25.4190   -2.4600 Zn        4 ZIL7        0.0000 
     17 Zn         -6.2500   23.6740   -1.8910 Zn        4 ZIL7        0.0000 
     18 N         -11.2990   27.3280   -8.8980 N.am      5 SEP1        0.0000 
     19 N          -1.2660   23.0370   -4.5600 N.am      5 SEP1        0.0000 
     20 N          -5.4980   19.3490   -4.7380 N.am      5 SEP1        0.0000 
     21 N          -8.4830   21.9810   -0.7380 N.am      5 SEP1        0.0000 
     22 N          -2.3300   17.9760   -1.5960 N.am      5 SEP1        0.0000 
     23 N          -6.3220   20.3010   -0.2810 N.am      5 SEP1        0.0000 
     24 N          -0.5750   19.0950   -2.5580 N.am      5 SEP1        0.0000 
     25 NZ         -1.2660   23.0370   -4.5600 N.4       6 LYP3        0.0000 
     26 NZ         -1.1670   17.9540   -2.2280 N.4       6 LYP3        0.0000 
     27 CA         -7.1190   22.2080   -6.7900 C.3       7 GLP5        0.0000 
     28 CA         -8.2150   21.6920   -6.0920 C.3       7 GLP5        0.0000 
     29 CA         -7.3050   28.0420    0.1020 C.3       7 GLP5        0.0000 
     30 CA        -11.9760   25.2320   -4.3940 C.3       7 GLP5        0.0000 
     31 CA         -8.8090   24.8120   -1.5870 C.3       7 GLP5        0.0000 
     32 Zn         -4.6800   24.4740   -0.4180 Zn        8 ZIP7        0.0000 
     33 Zn         -2.8530   27.4850   -1.4740 Zn        8 ZIP7        0.0000 
     34 N         -10.0945   26.7035   -9.2485 N.am      9 SEC1        0.0000 
     35 N          -2.1105   24.2095   -4.6985 N.am      9 SEC1        0.0000 
     36 N          -5.9440   20.7865   -4.2700 N.am      9 SEC1        0.0000 
     37 N          -7.3665   22.8275   -1.3145 N.am      9 SEC1        0.0000 
     38 N          -2.6715   19.5010   -1.0420 N.am      9 SEC1        0.0000 
     39 N          -4.6675   20.6635   -0.3845 N.am      9 SEC1        0.0000 
     40 N          -5.3610   21.1850   -1.2840 N.am      9 SEC1        0.0000 
     41 N          -1.2515   20.6180   -2.4765 N.am      9 SEC1        0.0000 
     42 NZ         -2.1105   24.2095   -4.6985 N.4      10 LYC3        0.0000 
     43 NZ         -2.0900   19.4900   -1.3580 N.4      10 LYC3        0.0000 
     44 CA         -7.7530   24.2875   -6.7075 C.3      11 GLC5        0.0000 
     45 CA         -8.5455   23.4020   -6.0090 C.3      11 GLC5        0.0000 
     46 CA         -7.5155   23.6160   -5.7710 C.3      11 GLC5        0.0000 
     47 CA         -6.8765   27.4235   -1.7655 C.3      11 GLC5        0.0000 
     48 CA        -10.0122   25.3997   -4.7147 C.3      11 GLC5        0.0000 
     49 CA         -8.1943   25.5106   -3.0055 C.3      11 GLC5        0.0000 
     50 Zn         -3.7825   23.9500   -0.5705 Zn       12 ZIC7        0.0000 
     51 Zn         -4.2640   24.9465   -1.4390 Zn       12 ZIC7        0.0000 
     52 Zn         -3.3505   26.4520   -1.9670 Zn       12 ZIC7        0.0000 
     53 Zn         -5.4650   24.0740   -1.1545 Zn       12 ZIC7        0.0000 
@<TRIPOS>BOND
@<TRIPOS>SUBSTRUCTURE
     1 SEL1        1 GROUP        1 Z    SEL  0     ROOT SEL Z 0
     2 LYL3        8 GROUP        1 Z    LYL  0     **** LYL Z 2
     3 GLL5       10 GROUP        1 Z    GLL  0     **** GLL Z 4
     4 ZIL7       15 GROUP        1 Z    ZIL  0     **** ZIL Z 5
     5 SEP1       18 GROUP        1 Z    SEP  0     **** SEP Z 7
     6 LYP3       25 GROUP        1 Z    LYP  0     **** LYP Z 9
     7 GLP5       27 GROUP        1 Z    GLP  0     **** GLP Z 11
     8 ZIP7       32 GROUP        1 Z    ZIP  0     **** ZIP Z 12
     9 SEC1       34 GROUP        1 Z    SEC  0     **** SEC Z 14
    10 LYC3       42 GROUP        1 Z    LYC  0     **** LYC Z 16
    11 GLC5       44 GROUP        1 Z    GLC  0     **** GLC Z 18
    12 ZIC7       50 GROUP        1 Z    ZIC  0     **** ZIC Z 19
@<TRIPOS>SET

