3g1l_RF2_1_ligand
  -OEChem-08111718373D

 28 30  0     0  0  0  0  0  0999 V2000
   29.7264   79.5675    9.7648 H   0  0  0  0  0  0  0  0  0  0  0  0
   30.2322   78.3672    7.7497 H   0  0  0  0  0  0  0  0  0  0  0  0
   30.4072   78.6750   11.8769 H   0  0  0  0  0  0  0  0  0  0  0  0
   31.4098   76.2979    7.8937 H   0  0  0  0  0  0  0  0  0  0  0  0
   31.5827   76.5940   12.0134 H   0  0  0  0  0  0  0  0  0  0  0  0
   33.9868   70.8310    9.8347 H   0  0  0  0  0  0  0  0  0  0  0  0
   32.4778   72.7051   13.1981 H   0  0  0  0  0  0  0  0  0  0  0  0
   34.3821   68.8182   11.0848 H   0  0  0  0  0  0  0  0  0  0  0  0
   32.8811   70.7144   14.4594 H   0  0  0  0  0  0  0  0  0  0  0  0
   32.1454   74.4753   11.9685 H   0  0  0  0  0  0  0  0  0  0  0  0
   30.2240   78.7010    9.8050 C   0  0  0  0  0  0  0  0  0  0  0  0
   30.5190   78.0110    8.6390 C   0  0  0  0  0  0  0  0  0  0  0  0
   30.6270   78.1770   11.0380 C   0  0  0  0  0  0  0  0  0  0  0  0
   31.2220   76.8130    8.7300 C   0  0  0  0  0  0  0  0  0  0  0  0
   31.3310   76.9710   11.1220 C   0  0  0  0  0  0  0  0  0  0  0  0
   33.7670   70.8100   10.8100 C   0  0  0  0  0  0  0  0  0  0  0  0
   32.8910   71.9090   12.7560 C   0  0  0  0  0  0  0  0  0  0  0  0
   33.9990   69.6270   11.5310 C   0  0  0  0  0  0  0  0  0  0  0  0
   33.1210   70.7410   13.4890 C   0  0  0  0  0  0  0  0  0  0  0  0
   31.6760   76.3040    9.9570 C   0  0  0  0  0  0  0  0  0  0  0  0
   33.2390   71.9610   11.4080 C   0  0  0  0  0  0  0  0  0  0  0  0
   33.6780   69.6150   12.8910 C   0  0  0  0  0  0  0  0  0  0  0  0
   32.3030   75.0510    9.9670 C   0  0  0  0  0  0  0  0  0  0  0  0
   32.9750   73.1050   10.6230 C   0  0  0  0  0  0  0  0  0  0  0  0
   32.7390   74.3460    8.8860 N   0  0  0  0  0  0  0  0  0  0  0  0
   33.1390   73.2200    9.2900 N   0  0  0  0  0  0  0  0  0  0  0  0
   32.4210   74.2540   11.0330 N   0  0  0  0  0  0  0  0  0  0  0  0
   33.9070   68.4940   13.6130 F   0  0  0  0  0  0  0  0  0  0  0  0
  1 11  1  0  0  0  0
  2 12  1  0  0  0  0
  3 13  1  0  0  0  0
  4 14  1  0  0  0  0
  5 15  1  0  0  0  0
  6 16  1  0  0  0  0
  7 17  1  0  0  0  0
  8 18  1  0  0  0  0
  9 19  1  0  0  0  0
 10 27  1  0  0  0  0
 11 12  2  0  0  0  0
 11 13  1  0  0  0  0
 12 14  1  0  0  0  0
 13 15  2  0  0  0  0
 14 20  2  0  0  0  0
 15 20  1  0  0  0  0
 16 18  2  0  0  0  0
 16 21  1  0  0  0  0
 17 19  1  0  0  0  0
 17 21  2  0  0  0  0
 18 22  1  0  0  0  0
 19 22  2  0  0  0  0
 20 23  1  0  0  0  0
 21 24  1  0  0  0  0
 22 28  1  0  0  0  0
 23 25  2  0  0  0  0
 23 27  1  0  0  0  0
 24 26  2  0  0  0  0
 24 27  1  0  0  0  0
 25 26  1  0  0  0  0
M  END
> <scpdb_id>
3g1l_1

$$$$
