2uxi_G50_2_ligand
  -OEChem-08111718373D

 34 35  0     1  0  0  0  0  0999 V2000
    1.8328   26.9334    7.8960 H   0  0  0  0  0  0  0  0  0  0  0  0
    2.5129   30.7667    6.4949 H   0  0  0  0  0  0  0  0  0  0  0  0
    3.0464   26.0456    6.0430 H   0  0  0  0  0  0  0  0  0  0  0  0
    3.7366   29.8920    4.6408 H   0  0  0  0  0  0  0  0  0  0  0  0
    2.6224   30.5960   14.9722 H   0  0  0  0  0  0  0  0  0  0  0  0
   -0.7767   32.6246   13.7317 H   0  0  0  0  0  0  0  0  0  0  0  0
    1.3932   30.5109    8.4978 H   0  0  0  0  0  0  0  0  0  0  0  0
    0.3329   29.2712    8.4242 H   0  0  0  0  0  0  0  0  0  0  0  0
    2.0302   28.0612    9.8313 H   0  0  0  0  0  0  0  0  0  0  0  0
    2.5689   29.5626   10.1808 H   0  0  0  0  0  0  0  0  0  0  0  0
    4.2701   26.3949    3.9997 H   0  0  0  0  0  0  0  0  0  0  0  0
    0.3269   33.2600   15.7782 H   0  0  0  0  0  0  0  0  0  0  0  0
    3.5011   28.8750   13.7050 H   0  0  0  0  0  0  0  0  0  0  0  0
   -1.2501   30.7029   10.7414 H   0  0  0  0  0  0  0  0  0  0  0  0
    2.2280   27.5510    7.2160 C   0  0  0  0  0  0  0  0  0  0  0  0
    2.6270   29.7780    6.3980 C   0  0  0  0  0  0  0  0  0  0  0  0
    2.9340   27.0350    6.1350 C   0  0  0  0  0  0  0  0  0  0  0  0
    3.3370   29.2710    5.3150 C   0  0  0  0  0  0  0  0  0  0  0  0
    1.8890   30.7360   14.3070 C   0  0  0  0  0  0  0  0  0  0  0  0
   -0.0910   31.9110   13.5880 C   0  0  0  0  0  0  0  0  0  0  0  0
    0.7890   30.0880   12.2200 C   0  0  0  0  0  0  0  0  0  0  0  0
    2.0720   28.9230    7.3510 C   0  0  0  0  0  0  0  0  0  0  0  0
    3.4890   27.8890    5.1740 C   0  0  0  0  0  0  0  0  0  0  0  0
    0.9400   31.7420   14.5250 C   0  0  0  0  0  0  0  0  0  0  0  0
    1.8230   29.9220   13.1660 C   0  0  0  0  0  0  0  0  0  0  0  0
   -0.1720   31.0890   12.4490 C   0  0  0  0  0  0  0  0  0  0  0  0
    0.6420   29.1900   10.9370 C   0  0  0  0  0  0  0  0  0  0  0  0
    1.2970   29.5160    8.5270 C   0  0  1  0  0  0  0  0  0  0  0  0
    1.7750   29.0260    9.8950 C   0  0  2  0  0  0  0  0  0  0  0  0
   -0.4260   28.5940   10.7340 O   0  0  0  0  0  0  0  0  0  0  0  0
    4.1660   27.3840    4.1040 O   0  0  0  0  0  0  0  0  0  0  0  0
    1.0110   32.5450   15.6340 O   0  0  0  0  0  0  0  0  0  0  0  0
    2.7830   28.9730   13.0160 O   0  0  0  0  0  0  0  0  0  0  0  0
   -1.1840   31.2820   11.5540 O   0  0  0  0  0  0  0  0  0  0  0  0
  1 15  1  0  0  0  0
  2 16  1  0  0  0  0
  3 17  1  0  0  0  0
  4 18  1  0  0  0  0
  5 19  1  0  0  0  0
  6 20  1  0  0  0  0
  7 28  1  0  0  0  0
  8 28  1  0  0  0  0
  9 29  1  0  0  0  0
 10 29  1  0  0  0  0
 11 31  1  0  0  0  0
 12 32  1  0  0  0  0
 13 33  1  0  0  0  0
 14 34  1  0  0  0  0
 15 17  1  0  0  0  0
 15 22  2  0  0  0  0
 16 18  2  0  0  0  0
 16 22  1  0  0  0  0
 17 23  2  0  0  0  0
 18 23  1  0  0  0  0
 19 24  2  0  0  0  0
 19 25  1  0  0  0  0
 20 24  1  0  0  0  0
 20 26  2  0  0  0  0
 21 25  2  0  0  0  0
 21 26  1  0  0  0  0
 21 27  1  0  0  0  0
 22 28  1  0  0  0  0
 23 31  1  0  0  0  0
 24 32  1  0  0  0  0
 25 33  1  0  0  0  0
 26 34  1  0  0  0  0
 27 29  1  0  0  0  0
 27 30  2  0  0  0  0
 28 29  1  0  0  0  0
M  END
> <scpdb_id>
2uxi_2

$$$$
