1gwr_EST_1_ligand
  -OEChem-08111718373D

 44 47  0     1  0  0  0  0  0999 V2000
   -8.5785   -4.1851   15.6842 H   0  0  0  0  0  0  0  0  0  0  0  0
   -7.1894   -3.8276   17.5967 H   0  0  0  0  0  0  0  0  0  0  0  0
   -3.8015   -4.6879   15.3732 H   0  0  0  0  0  0  0  0  0  0  0  0
   -4.1977   -5.8132   13.2018 H   0  0  0  0  0  0  0  0  0  0  0  0
   -4.3791   -4.2597   12.7325 H   0  0  0  0  0  0  0  0  0  0  0  0
   -6.0223   -6.4906   12.0294 H   0  0  0  0  0  0  0  0  0  0  0  0
   -5.2816   -5.4412   11.0211 H   0  0  0  0  0  0  0  0  0  0  0  0
   -8.9288   -3.1068   12.9062 H   0  0  0  0  0  0  0  0  0  0  0  0
   -9.6704   -4.1822   13.8861 H   0  0  0  0  0  0  0  0  0  0  0  0
   -6.4207   -5.4854    9.1319 H   0  0  0  0  0  0  0  0  0  0  0  0
   -6.9587   -3.9443    9.1788 H   0  0  0  0  0  0  0  0  0  0  0  0
   -8.3483   -6.2488    8.0901 H   0  0  0  0  0  0  0  0  0  0  0  0
   -8.4610   -4.7025    7.5775 H   0  0  0  0  0  0  0  0  0  0  0  0
  -10.8290   -4.1158   11.7800 H   0  0  0  0  0  0  0  0  0  0  0  0
  -10.1369   -5.5839   11.9597 H   0  0  0  0  0  0  0  0  0  0  0  0
   -8.1020   -5.8497   13.1525 H   0  0  0  0  0  0  0  0  0  0  0  0
   -6.7901   -3.7035   11.7571 H   0  0  0  0  0  0  0  0  0  0  0  0
   -8.0032   -6.1300   10.7956 H   0  0  0  0  0  0  0  0  0  0  0  0
   -9.9884   -5.9902    9.5678 H   0  0  0  0  0  0  0  0  0  0  0  0
   -8.4491   -2.8745    9.3248 H   0  0  0  0  0  0  0  0  0  0  0  0
   -9.8845   -2.5220   10.0190 H   0  0  0  0  0  0  0  0  0  0  0  0
   -8.5109   -2.4430   10.8985 H   0  0  0  0  0  0  0  0  0  0  0  0
   -4.9688   -3.7543   18.6358 H   0  0  0  0  0  0  0  0  0  0  0  0
  -11.0139   -4.9627    7.8313 H   0  0  0  0  0  0  0  0  0  0  0  0
   -7.5870   -4.2900   15.6070 C   0  0  0  0  0  0  0  0  0  0  0  0
   -6.7720   -4.0810   16.7240 C   0  0  0  0  0  0  0  0  0  0  0  0
   -4.7940   -4.5800   15.4310 C   0  0  0  0  0  0  0  0  0  0  0  0
   -7.0010   -4.6540   14.3540 C   0  0  0  0  0  0  0  0  0  0  0  0
   -5.6090   -4.7840   14.3130 C   0  0  0  0  0  0  0  0  0  0  0  0
   -5.4180   -4.2170   16.6430 C   0  0  0  0  0  0  0  0  0  0  0  0
   -4.8610   -5.0870   13.0210 C   0  0  2  0  0  0  0  0  0  0  0  0
   -5.7660   -5.5340   11.8910 C   0  0  2  0  0  0  0  0  0  0  0  0
   -9.1420   -4.0740   13.0440 C   0  0  1  0  0  0  0  0  0  0  0  0
   -7.2160   -4.9030    9.3000 C   0  0  1  0  0  0  0  0  0  0  0  0
   -8.4190   -5.2950    8.3820 C   0  0  2  0  0  0  0  0  0  0  0  0
   -9.9600   -4.6070   11.8400 C   0  0  2  0  0  0  0  0  0  0  0  0
   -7.8390   -4.8850   13.1400 C   0  0  1  0  0  0  0  0  0  0  0  0
   -7.0270   -4.6690   11.8650 C   0  0  2  0  0  0  0  0  0  0  0  0
   -7.8140   -5.1540   10.6880 C   0  0  1  0  0  0  0  0  0  0  0  0
   -9.6670   -5.0840    9.2930 C   0  0  1  0  0  0  0  0  0  0  0  0
   -9.1520   -4.3830   10.5580 C   0  0  1  0  0  0  0  0  0  0  0  0
   -8.9850   -2.9330   10.1670 C   0  0  0  0  0  0  0  0  0  0  0  0
   -4.5770   -4.0100   17.7520 O   0  0  0  0  0  0  0  0  0  0  0  0
  -10.7490   -4.4360    8.6390 O   0  0  0  0  0  0  0  0  0  0  0  0
  1 25  1  0  0  0  0
  2 26  1  0  0  0  0
  3 27  1  0  0  0  0
  4 31  1  0  0  0  0
  5 31  1  0  0  0  0
  6 32  1  0  0  0  0
  7 32  1  0  0  0  0
  8 33  1  0  0  0  0
  9 33  1  0  0  0  0
 10 34  1  0  0  0  0
 11 34  1  0  0  0  0
 12 35  1  0  0  0  0
 13 35  1  0  0  0  0
 14 36  1  0  0  0  0
 15 36  1  0  0  0  0
 16 37  1  0  0  0  0
 17 38  1  0  0  0  0
 18 39  1  0  0  0  0
 19 40  1  0  0  0  0
 20 42  1  0  0  0  0
 21 42  1  0  0  0  0
 22 42  1  0  0  0  0
 23 43  1  0  0  0  0
 24 44  1  0  0  0  0
 25 26  2  0  0  0  0
 25 28  1  0  0  0  0
 26 30  1  0  0  0  0
 27 29  1  0  0  0  0
 27 30  2  0  0  0  0
 28 29  2  0  0  0  0
 28 37  1  0  0  0  0
 29 31  1  0  0  0  0
 30 43  1  0  0  0  0
 31 32  1  0  0  0  0
 32 38  1  0  0  0  0
 33 36  1  0  0  0  0
 33 37  1  0  0  0  0
 34 35  1  0  0  0  0
 34 39  1  0  0  0  0
 35 40  1  0  0  0  0
 36 41  1  0  0  0  0
 37 38  1  0  0  0  0
 38 39  1  0  0  0  0
 39 41  1  0  0  0  0
 40 41  1  0  0  0  0
 40 44  1  0  0  0  0
 41 42  1  0  0  0  0
M  END
> <scpdb_id>
1gwr_1

$$$$
