#    Name: 17788
#    Modification time : Tue Aug  8 20:02:14 2017

@<TRIPOS>MOLECULE
17788
    9     0     9     0     0
SMALL
NO_CHARGES


@<TRIPOS>ATOM
      1 N          57.3370    5.9150  -11.9850 N.am      1 SEL1        0.0000 
      2 O          58.5780    5.9550  -10.1330 O.2       2 ALL2        0.0000 
      3 CZ         57.4408    3.5883  -10.5313 C.ar      3 PHL6        0.0000 
      4 N          56.8800    6.9990  -14.5250 N.am      4 SEP1        0.0000 
      5 O          60.3610    6.7820   -8.4180 O.2       5 ALP2        0.0000 
      6 CZ         59.4783    3.4680  -13.5443 C.ar      6 PHP6        0.0000 
      7 N          57.1085    6.4570  -13.2550 N.am      7 SEC1        0.0000 
      8 O          59.4695    6.3685   -9.2755 O.2       8 ALC2        0.0000 
      9 CZ         58.4596    3.5282  -12.0378 C.ar      9 PHC6        0.0000 
@<TRIPOS>BOND
@<TRIPOS>SUBSTRUCTURE
     1 SEL1        1 GROUP        1 Z    SEL  0     ROOT SEL Z 0
     2 ALL2        2 GROUP        1 Z    ALL  0     **** ALL Z 1
     3 PHL6        3 GROUP        1 Z    PHL  0     **** PHL Z 6
     4 SEP1        4 GROUP        1 Z    SEP  0     **** SEP Z 7
     5 ALP2        5 GROUP        1 Z    ALP  0     **** ALP Z 8
     6 PHP6        6 GROUP        1 Z    PHP  0     **** PHP Z 13
     7 SEC1        7 GROUP        1 Z    SEC  0     **** SEC Z 14
     8 ALC2        8 GROUP        1 Z    ALC  0     **** ALC Z 15
     9 PHC6        9 GROUP        1 Z    PHC  0     **** PHC Z 20
@<TRIPOS>SET

