#    Name: 20970
#    Modification time : Wed Aug  9 00:05:42 2017

@<TRIPOS>MOLECULE
20970
   45     0    12     0     0
SMALL
NO_CHARGES


@<TRIPOS>ATOM
      1 N          17.5310   31.2760   35.5320 N.am      1 SEL1        0.0000 
      2 N          19.7000   31.2940   36.9650 N.am      1 SEL1        0.0000 
      3 O          19.7000   31.2940   36.9650 O.2       2 ALL2        0.0000 
      4 O          20.2170   35.9900   38.1410 O.2       2 ALL2        0.0000 
      5 CA         19.3180   38.6220   37.4590 C.3       3 GLL5        0.0000 
      6 CA         22.2710   41.7410   34.4020 C.3       3 GLL5        0.0000 
      7 CA         22.3380   40.4740   33.8040 C.3       3 GLL5        0.0000 
      8 CA         20.4480   35.8840   36.7470 C.3       3 GLL5        0.0000 
      9 CA         21.4140   41.9290   35.4860 C.3       3 GLL5        0.0000 
     10 CA         20.7160   39.5660   35.4940 C.3       3 GLL5        0.0000 
     11 CA         21.5810   39.3900   34.3930 C.3       3 GLL5        0.0000 
     12 Zn         22.2050   37.9140   32.6650 Zn        4 ZIL7        0.0000 
     13 Zn         22.0420   35.5100   32.9620 Zn        4 ZIL7        0.0000 
     14 N          17.1580   32.6280   38.2110 N.am      5 SEP1        0.0000 
     15 N          15.7350   29.2280   35.7210 N.am      5 SEP1        0.0000 
     16 N          19.4180   29.8200   39.2460 N.am      5 SEP1        0.0000 
     17 O          19.4170   28.8100   35.6450 O.2       6 ALP2        0.0000 
     18 O          17.9170   34.7510   38.2170 O.2       6 ALP2        0.0000 
     19 CA         18.8730   40.6800   40.7890 C.3       7 GLP5        0.0000 
     20 CA         22.3740   37.3390   39.7560 C.3       7 GLP5        0.0000 
     21 CA         22.4050   43.4610   30.2820 C.3       7 GLP5        0.0000 
     22 CA         22.6830   42.0750   29.8420 C.3       7 GLP5        0.0000 
     23 CA         16.5810   36.3880   34.9120 C.3       7 GLP5        0.0000 
     24 CA         16.2000   37.4930   35.8310 C.3       7 GLP5        0.0000 
     25 CA         22.4920   42.3650   39.5350 C.3       7 GLP5        0.0000 
     26 CA         18.6610   39.5280   32.2890 C.3       7 GLP5        0.0000 
     27 Zn         23.1660   36.4090   31.6760 Zn        8 ZIP7        0.0000 
     28 N          17.3445   31.9520   36.8715 N.am      9 SEC1        0.0000 
     29 N          16.6330   30.2520   35.6265 N.am      9 SEC1        0.0000 
     30 N          18.4290   31.9610   37.5880 N.am      9 SEC1        0.0000 
     31 N          19.5590   30.5570   38.1055 N.am      9 SEC1        0.0000 
     32 O          19.5585   30.0520   36.3050 O.2      10 ALC2        0.0000 
     33 O          19.0670   35.3705   38.1790 O.2      10 ALC2        0.0000 
     34 CA         19.0955   39.6510   39.1240 C.3      11 GLC5        0.0000 
     35 CA         20.8460   37.9805   38.6075 C.3      11 GLC5        0.0000 
     36 CA         22.3380   42.6010   32.3420 C.3      11 GLC5        0.0000 
     37 CA         22.5105   41.2745   31.8230 C.3      11 GLC5        0.0000 
     38 CA         18.6017   36.4570   35.6430 C.3      11 GLC5        0.0000 
     39 CA         17.9065   38.0030   36.2920 C.3      11 GLC5        0.0000 
     40 CA         21.7677   41.8795   37.6442 C.3      11 GLC5        0.0000 
     41 CA         19.5768   39.7250   34.0924 C.3      11 GLC5        0.0000 
     42 CA         20.3103   39.7300   33.1938 C.3      11 GLC5        0.0000 
     43 CA         21.5577   36.6160   38.1118 C.3      11 GLC5        0.0000 
     44 Zn         22.6855   37.1615   32.1705 Zn       12 ZIC7        0.0000 
     45 Zn         22.6040   35.9595   32.3190 Zn       12 ZIC7        0.0000 
@<TRIPOS>BOND
@<TRIPOS>SUBSTRUCTURE
     1 SEL1        1 GROUP        1 Z    SEL  0     ROOT SEL Z 0
     2 ALL2        3 GROUP        1 Z    ALL  0     **** ALL Z 1
     3 GLL5        5 GROUP        1 Z    GLL  0     **** GLL Z 4
     4 ZIL7       12 GROUP        1 Z    ZIL  0     **** ZIL Z 5
     5 SEP1       14 GROUP        1 Z    SEP  0     **** SEP Z 7
     6 ALP2       17 GROUP        1 Z    ALP  0     **** ALP Z 8
     7 GLP5       19 GROUP        1 Z    GLP  0     **** GLP Z 11
     8 ZIP7       27 GROUP        1 Z    ZIP  0     **** ZIP Z 12
     9 SEC1       28 GROUP        1 Z    SEC  0     **** SEC Z 14
    10 ALC2       32 GROUP        1 Z    ALC  0     **** ALC Z 15
    11 GLC5       34 GROUP        1 Z    GLC  0     **** GLC Z 18
    12 ZIC7       44 GROUP        1 Z    ZIC  0     **** ZIC Z 19
@<TRIPOS>SET

