@<TRIPOS>MOLECULE
2xrl_DXT_1_ligand
   57    60     1     0     0
SMALL
NO_CHARGES


@<TRIPOS>ATOM
     1 C1          19.7970    33.8880    34.4660 C.2          1 DXT1211   0.0000
     2 O1          19.1760    34.3570    33.4350 O.2          1 DXT1211   0.0000
     3 C2          19.3680    32.7270    35.1430 C.2          1 DXT1211   0.0000
     4 O21         17.5310    31.2760    35.5320 O.2          1 DXT1211   0.0000
     5 C21         18.1220    32.1360    34.8010 C.2          1 DXT1211   0.0000
     6 N21         17.4890    32.4280    33.6570 N.am         1 DXT1211   0.0000
     7 C3          19.9130    32.4240    36.3490 C.2          1 DXT1211   0.0000
     8 O3          19.7000    31.2940    36.9650 O.3          1 DXT1211   0.0000
     9 N4          21.8390    32.5980    37.8650 N.4          1 DXT1211   1.0000
    10 C41         22.3300    33.4620    39.0040 C.3          1 DXT1211   0.0000
    11 C42         23.0520    32.1140    37.1080 C.3          1 DXT1211   0.0000
    12 C5          20.4480    35.8840    36.7470 C.3          1 DXT1211   0.0000
    13 O5          20.2170    35.9900    38.1410 O.3          1 DXT1211   0.0000
    14 C5A         20.7970    37.1680    36.0010 C.3          1 DXT1211   0.0000
    15 C6          19.9080    38.4040    36.0470 C.3          1 DXT1211   0.0000
    16 C61         19.3180    38.6220    37.4590 C.3          1 DXT1211   0.0000
    17 C6A         20.7160    39.5660    35.4940 C.ar         1 DXT1211   0.0000
    18 C7          20.6730    40.8590    36.0210 C.ar         1 DXT1211   0.0000
    19 C8          21.4140    41.9290    35.4860 C.ar         1 DXT1211   0.0000
    20 C9          22.2710    41.7410    34.4020 C.ar         1 DXT1211   0.0000
    21 C10         22.3380    40.4740    33.8040 C.ar         1 DXT1211   0.0000
    22 O10         23.1440    40.3300    32.7120 O.3          1 DXT1211   0.0000
    23 C6B         21.5810    39.3900    34.3930 C.ar         1 DXT1211   0.0000
    24 O11         22.2050    37.9140    32.6650 O.3          1 DXT1211   0.0000
    25 C5B         21.3650    36.9360    34.5940 C.2          1 DXT1211   0.0000
    26 C12         21.5490    35.7060    34.1290 C.2          1 DXT1211   0.0000
    27 O12         22.0420    35.5100    32.9620 O.2          1 DXT1211   0.0000
    28 C4B         21.1900    34.4320    34.8780 C.3          1 DXT1211   0.0000
    29 O13         22.1460    33.4140    34.5040 O.3          1 DXT1211   0.0000
    30 C4          20.7650    33.3720    37.1200 C.3          1 DXT1211   0.0000
    31 C4A         21.2730    34.6360    36.3750 C.3          1 DXT1211   0.0000
    32 C11         21.6520    38.0150    33.8100 C.2          1 DXT1211   0.0000
    33 H1          16.6129    31.9947    33.4456 H            1 DXT1211   0.0000
    34 H2          17.8926    33.0793    33.0144 H            1 DXT1211   0.0000
    35 H3          19.1106    30.6013    36.5494 H            1 DXT1211   0.0000
    36 H4          21.5477    33.7999    39.5273 H            1 DXT1211   0.0000
    37 H5          22.9221    32.9211    39.6014 H            1 DXT1211   0.0000
    38 H6          22.8450    34.2366    38.6368 H            1 DXT1211   0.0000
    39 H7          22.7604    31.5373    36.3448 H            1 DXT1211   0.0000
    40 H8          23.5610    32.8997    36.7565 H            1 DXT1211   0.0000
    41 H9          23.6381    31.5843    37.7211 H            1 DXT1211   0.0000
    42 H10         19.5406    35.6621    36.3901 H            1 DXT1211   0.0000
    43 H11         19.2878    35.6845    38.3491 H            1 DXT1211   0.0000
    44 H5A         21.6062    37.4799    36.4989 H            1 DXT1211   0.0000
    45 H13         19.1427    38.2467    35.4229 H            1 DXT1211   0.0000
    46 H14         18.7408    39.4386    37.4566 H            1 DXT1211   0.0000
    47 H15         18.7695    37.8268    37.7175 H            1 DXT1211   0.0000
    48 H16         20.0620    38.7416    38.1163 H            1 DXT1211   0.0000
    49 H17         20.0893    41.0320    36.8143 H            1 DXT1211   0.0000
    50 H18         21.3246    42.8394    35.8899 H            1 DXT1211   0.0000
    51 H19         22.8281    42.4964    34.0570 H            1 DXT1211   0.0000
    52 H20         23.6609    41.1127    32.3654 H            1 DXT1211   0.0000
    53 H21         22.5616    38.7290    32.2083 H            1 DXT1211   0.0000
    54 H22         23.0673    33.7158    34.7491 H            1 DXT1211   0.0000
    55 H23         20.1646    33.7255    37.8373 H            1 DXT1211   0.0000
    56 H4A         22.2279    34.7951    36.6256 H            1 DXT1211   0.0000
    57 H25         21.4006    31.7950    38.2687 H            1 DXT1211   0.0000
@<TRIPOS>BOND
     1    1    2       2
     2    1    3       1
     3    1   28       1
     4    3    5       1
     5    3    7       2
     6    4    5       2
     7    5    6      am
     8    7    8       1
     9    7   30       1
    10    9   10       1
    11    9   11       1
    12    9   30       1
    13   12   13       1
    14   12   14       1
    15   12   31       1
    16   14   15       1
    17   14   25       1
    18   15   16       1
    19   15   17       1
    20   17   18      ar
    21   17   23      ar
    22   18   19      ar
    23   19   20      ar
    24   20   21      ar
    25   21   22       1
    26   21   23      ar
    27   23   32       1
    28   24   32       1
    29   25   26       1
    30   25   32       2
    31   26   27       2
    32   26   28       1
    33   28   29       1
    34   28   31       1
    35   30   31       1
    36    6   33       1
    37    6   34       1
    38    8   35       1
    39   10   36       1
    40   10   37       1
    41   10   38       1
    42   11   39       1
    43   11   40       1
    44   11   41       1
    45   12   42       1
    46   13   43       1
    47   14   44       1
    48   15   45       1
    49   16   46       1
    50   16   47       1
    51   16   48       1
    52   18   49       1
    53   19   50       1
    54   20   51       1
    55   22   52       1
    56   24   53       1
    57   29   54       1
    58   30   55       1
    59   31   56       1
    60    9   57       1
@<TRIPOS>SUBSTRUCTURE
     1 DXT1211     1 GROUP             4 A     DXT     0 **** DXT A1211
