3qp6_HL6_1_ligand
  -OEChem-08111718373D

 31 31  0     1  0  0  0  0  0999 V2000
   17.6741    2.1506   53.4350 H   0  0  0  0  0  0  0  0  0  0  0  0
   18.1723    3.6937   53.6288 H   0  0  0  0  0  0  0  0  0  0  0  0
   17.2762    1.8742   55.6685 H   0  0  0  0  0  0  0  0  0  0  0  0
   18.3959    3.0544   55.8105 H   0  0  0  0  0  0  0  0  0  0  0  0
   15.4899    2.7299   53.3568 H   0  0  0  0  0  0  0  0  0  0  0  0
   11.4868    9.1094   53.3497 H   0  0  0  0  0  0  0  0  0  0  0  0
   11.7896    7.6114   53.9251 H   0  0  0  0  0  0  0  0  0  0  0  0
   13.0029    8.6966   53.7945 H   0  0  0  0  0  0  0  0  0  0  0  0
   15.0436    4.9199   49.5656 H   0  0  0  0  0  0  0  0  0  0  0  0
   15.7946    5.9840   50.5506 H   0  0  0  0  0  0  0  0  0  0  0  0
   11.5833    7.5577   51.5607 H   0  0  0  0  0  0  0  0  0  0  0  0
   12.7966    8.6429   51.4302 H   0  0  0  0  0  0  0  0  0  0  0  0
   12.9418    5.6348   50.2673 H   0  0  0  0  0  0  0  0  0  0  0  0
   13.7868    6.9870   49.9148 H   0  0  0  0  0  0  0  0  0  0  0  0
   14.3195    7.0728   52.3363 H   0  0  0  0  0  0  0  0  0  0  0  0
   13.1106    5.9909   52.5219 H   0  0  0  0  0  0  0  0  0  0  0  0
   16.7550    5.1056   52.2913 H   0  0  0  0  0  0  0  0  0  0  0  0
   15.6490    4.1500   54.8350 C   0  0  0  0  0  0  0  0  0  0  0  0
   15.0130    4.3520   51.5560 C   0  0  0  0  0  0  0  0  0  0  0  0
   17.4870    3.0170   53.8980 C   0  0  2  0  0  0  0  0  0  0  0  0
   17.5000    2.8200   55.4330 C   0  0  1  0  0  0  0  0  0  0  0  0
   16.0780    3.5160   53.5470 C   0  0  2  0  0  0  0  0  0  0  0  0
   12.1550    8.3660   53.3800 C   0  0  0  0  0  0  0  0  0  0  0  0
   15.0030    5.3810   50.4520 C   0  0  2  0  0  0  0  0  0  0  0  0
   12.4370    7.8810   51.9690 C   0  0  1  0  0  0  0  0  0  0  0  0
   13.7130    6.2100   50.5400 C   0  0  2  0  0  0  0  0  0  0  0  0
   13.4570    6.7390   51.9560 C   0  0  1  0  0  0  0  0  0  0  0  0
   16.0320    4.4270   52.4210 N   0  0  0  0  0  0  0  0  0  0  0  0
   14.7370    4.9600   54.9640 O   0  0  0  0  0  0  0  0  0  0  0  0
   14.1290    3.4930   51.6140 O   0  0  0  0  0  0  0  0  0  0  0  0
   16.4940    3.7150   55.9270 O   0  0  0  0  0  0  0  0  0  0  0  0
  1 20  1  0  0  0  0
  2 20  1  0  0  0  0
  3 21  1  0  0  0  0
  4 21  1  0  0  0  0
  5 22  1  0  0  0  0
  6 23  1  0  0  0  0
  7 23  1  0  0  0  0
  8 23  1  0  0  0  0
  9 24  1  0  0  0  0
 10 24  1  0  0  0  0
 11 25  1  0  0  0  0
 12 25  1  0  0  0  0
 13 26  1  0  0  0  0
 14 26  1  0  0  0  0
 15 27  1  0  0  0  0
 16 27  1  0  0  0  0
 17 28  1  0  0  0  0
 18 22  1  0  0  0  0
 18 29  2  0  0  0  0
 18 31  1  0  0  0  0
 19 24  1  0  0  0  0
 19 28  1  0  0  0  0
 19 30  2  0  0  0  0
 20 21  1  0  0  0  0
 20 22  1  0  0  0  0
 21 31  1  0  0  0  0
 22 28  1  0  0  0  0
 23 25  1  0  0  0  0
 24 26  1  0  0  0  0
 25 27  1  0  0  0  0
 26 27  1  0  0  0  0
M  END
> <scpdb_id>
3qp6_1

$$$$
