#    Name: 23589
#    Modification time : Tue Aug  8 19:54:39 2017

@<TRIPOS>MOLECULE
23589
   43     0    12     0     0
SMALL
NO_CHARGES


@<TRIPOS>ATOM
      1 N          12.1760    6.0380   10.7230 N.am      1 SEL1        0.0000 
      2 N          13.2370    6.1120   12.6700 N.am      1 SEL1        0.0000 
      3 N          12.2850   -2.5030   10.2220 N.am      1 SEL1        0.0000 
      4 O          12.3570    3.3160   10.4580 O.2       2 ALL2        0.0000 
      5 O          15.0370    1.5680   14.8780 O.2       2 ALL2        0.0000 
      6 O          11.1860   -4.5100    8.1500 O.2       2 ALL2        0.0000 
      7 NZ         12.1760    6.0380   10.7230 N.4       3 LYL3        0.0000 
      8 NZ         13.2370    6.1120   12.6700 N.4       3 LYL3        0.0000 
      9 CA         14.3940    3.4480   11.9670 C.3       4 GLL5        0.0000 
     10 CA         12.9270    0.6890   14.1460 C.3       4 GLL5        0.0000 
     11 CA         10.3500    0.0840   14.1560 C.3       4 GLL5        0.0000 
     12 CA          9.3920    0.1270   12.9660 C.3       4 GLL5        0.0000 
     13 N          11.7450    5.9150    7.8780 N.am      5 SEP1        0.0000 
     14 N          14.4180    8.5810   12.0760 N.am      5 SEP1        0.0000 
     15 N          14.5800    6.3510   15.0320 N.am      5 SEP1        0.0000 
     16 N          15.0170   -3.3290    9.9540 N.am      5 SEP1        0.0000 
     17 O          13.4570    0.8300    9.5820 O.2       6 ALP2        0.0000 
     18 O          13.7670    4.1700    8.2850 O.2       6 ALP2        0.0000 
     19 O          17.0080    3.2380   13.9570 O.2       6 ALP2        0.0000 
     20 O          14.6990    3.4480   16.7560 O.2       6 ALP2        0.0000 
     21 O          10.1400   -6.5840    6.3570 O.2       6 ALP2        0.0000 
     22 O          14.2010   -5.1300    7.9130 O.2       6 ALP2        0.0000 
     23 NZ         14.4180    8.5810   12.0760 N.4       7 LYP3        0.0000 
     24 CA         16.3580    7.1730   11.4030 C.3       8 GLP5        0.0000 
     25 CA         14.2060   -2.9530   14.1770 C.3       8 GLP5        0.0000 
     26 CA         10.3060   -3.8300   13.9110 C.3       8 GLP5        0.0000 
     27 CA          8.9350   -3.6250   13.7130 C.3       8 GLP5        0.0000 
     28 N          11.9605    5.9765    9.3005 N.am      9 SEC1        0.0000 
     29 N          13.8275    7.3465   12.3730 N.am      9 SEC1        0.0000 
     30 N          13.9085    6.2315   13.8510 N.am      9 SEC1        0.0000 
     31 N          13.6510   -2.9160   10.0880 N.am      9 SEC1        0.0000 
     32 O          12.9070    2.0730   10.0200 O.2      10 ALC2        0.0000 
     33 O          13.0620    3.7430    9.3715 O.2      10 ALC2        0.0000 
     34 O          16.0225    2.4030   14.4175 O.2      10 ALC2        0.0000 
     35 O          14.8680    2.5080   15.8170 O.2      10 ALC2        0.0000 
     36 O          10.6630   -5.5470    7.2535 O.2      10 ALC2        0.0000 
     37 O          12.6935   -4.8200    8.0315 O.2      10 ALC2        0.0000 
     38 NZ         13.2970    7.3095   11.3995 N.4      11 LYC3        0.0000 
     39 NZ         13.8275    7.3465   12.3730 N.4      11 LYC3        0.0000 
     40 CA         15.3760    5.3105   11.6850 C.3      12 GLC5        0.0000 
     41 CA         13.5665   -1.1320   14.1615 C.3      12 GLC5        0.0000 
     42 CA         10.3280   -1.8730   14.0335 C.3      12 GLC5        0.0000 
     43 CA          9.1635   -1.7490   13.3395 C.3      12 GLC5        0.0000 
@<TRIPOS>BOND
@<TRIPOS>SUBSTRUCTURE
     1 SEL1        1 GROUP        1 Z    SEL  0     ROOT SEL Z 0
     2 ALL2        4 GROUP        1 Z    ALL  0     **** ALL Z 1
     3 LYL3        7 GROUP        1 Z    LYL  0     **** LYL Z 2
     4 GLL5        9 GROUP        1 Z    GLL  0     **** GLL Z 4
     5 SEP1       13 GROUP        1 Z    SEP  0     **** SEP Z 7
     6 ALP2       17 GROUP        1 Z    ALP  0     **** ALP Z 8
     7 LYP3       23 GROUP        1 Z    LYP  0     **** LYP Z 9
     8 GLP5       24 GROUP        1 Z    GLP  0     **** GLP Z 11
     9 SEC1       28 GROUP        1 Z    SEC  0     **** SEC Z 14
    10 ALC2       32 GROUP        1 Z    ALC  0     **** ALC Z 15
    11 LYC3       38 GROUP        1 Z    LYC  0     **** LYC Z 16
    12 GLC5       40 GROUP        1 Z    GLC  0     **** GLC Z 18
@<TRIPOS>SET

