@<TRIPOS>MOLECULE
3cbp_SFG_1_ligand
   50    52     1     0     0
SMALL
NO_CHARGES


@<TRIPOS>ATOM
     1 N           12.3570     3.3160    10.4580 N.4          1 SFG1501   1.0000
     2 CA          12.9460     3.9590    11.6420 C.3          1 SFG1501   0.0000
     3 C           12.7940     5.4900    11.6720 C.2          1 SFG1501   0.0000
     4 O           12.1760     6.0380    10.7230 O.co2        1 SFG1501   0.0000
     5 OXT         13.2370     6.1120    12.6700 O.co2        1 SFG1501  -1.0000
     6 CB          14.3940     3.4480    11.9670 C.3          1 SFG1501   0.0000
     7 CG          14.2410     1.9850    12.5030 C.3          1 SFG1501   0.0000
     8 CD          13.8640     1.9000    14.0030 C.3          1 SFG1501   0.0000
     9 NE          15.0370     1.5680    14.8780 N.3          1 SFG1501   0.0000
    10 C5'         12.9270     0.6890    14.1460 C.3          1 SFG1501   0.0000
    11 C4'         11.4730     1.0390    13.7060 C.3          1 SFG1501   0.0000
    12 O4'         11.3750     1.0900    12.2760 O.3          1 SFG1501   0.0000
    13 C3'         10.3500     0.0840    14.1560 C.3          1 SFG1501   0.0000
    14 O3'          9.8220     0.5000    15.4040 O.3          1 SFG1501   0.0000
    15 C2'          9.3920     0.1270    12.9660 C.3          1 SFG1501   0.0000
    16 O2'          8.4770     1.2400    13.0310 O.3          1 SFG1501   0.0000
    17 C1'         10.3000     0.3080    11.7410 C.3          1 SFG1501   0.0000
    18 N9          10.8740    -0.8740    11.0440 N.pl3        1 SFG1501   0.0000
    19 C8          12.1130    -1.4550    11.0400 C.2          1 SFG1501   0.0000
    20 N7          12.2850    -2.5030    10.2220 N.2          1 SFG1501   0.0000
    21 C5          11.0340    -2.6530     9.6380 C.ar         1 SFG1501   0.0000
    22 C6          10.4370    -3.5210     8.7010 C.ar         1 SFG1501   0.0000
    23 N6          11.1860    -4.5100     8.1500 N.pl3        1 SFG1501   0.0000
    24 N1           9.1000    -3.3890     8.3390 N.ar         1 SFG1501   0.0000
    25 C2           8.3070    -2.3970     8.8650 C.ar         1 SFG1501   0.0000
    26 N3           8.8290    -1.5060     9.7690 N.ar         1 SFG1501   0.0000
    27 C4          10.1560    -1.6470    10.1450 C.ar         1 SFG1501   0.0000
    28 H1          12.4960     2.3272    10.5119 H            1 SFG1501   0.0000
    29 H2          11.3773     3.5135    10.4241 H            1 SFG1501   0.0000
    30 HA          12.3882     3.6362    12.4067 H            1 SFG1501   0.0000
    31 HB1         14.8167     4.0283    12.6631 H            1 SFG1501   0.0000
    32 HB2         14.9565     3.4557    11.1402 H            1 SFG1501   0.0000
    33 HG1         15.1101     1.5087    12.3697 H            1 SFG1501   0.0000
    34 HG2         13.5263     1.5289    11.9728 H            1 SFG1501   0.0000
    35 HD          13.4147     2.7396    14.3083 H            1 SFG1501   0.0000
    36 HE1         15.8737     1.9266    14.4640 H            1 SFG1501   0.0000
    37 H5'1        12.9161     0.3973    15.1025 H            1 SFG1501   0.0000
    38 H5'2        13.2693    -0.0565    13.5741 H            1 SFG1501   0.0000
    39 H4'         11.2585     1.9497    14.0590 H            1 SFG1501   0.0000
    40 H3'         10.7207    -0.8403    14.2470 H            1 SFG1501   0.0000
    41 H14          8.8471     0.6990    15.3038 H            1 SFG1501   0.0000
    42 H2'          8.8863    -0.7330    12.8977 H            1 SFG1501   0.0000
    43 H16          7.6193     0.9932    12.5799 H            1 SFG1501   0.0000
    44 H1'          9.8122     0.8635    11.0677 H            1 SFG1501   0.0000
    45 H18         12.8538    -1.1144    11.6190 H            1 SFG1501   0.0000
    46 H19         10.7779    -5.1342     7.4838 H            1 SFG1501   0.0000
    47 H20         12.1459    -4.6143     8.4103 H            1 SFG1501   0.0000
    48 H21          7.3487    -2.3245     8.5887 H            1 SFG1501   0.0000
    49 H22         12.7972     3.6700     9.6328 H            1 SFG1501   0.0000
    50 HE2         14.9077     1.9808    15.7796 H            1 SFG1501   0.0000
@<TRIPOS>BOND
     1    1    2       1
     2    2    3       1
     3    2    6       1
     4    3    4      ar
     5    3    5      ar
     6    6    7       1
     7    7    8       1
     8    8    9       1
     9    8   10       1
    10   10   11       1
    11   11   12       1
    12   11   13       1
    13   12   17       1
    14   13   14       1
    15   13   15       1
    16   15   16       1
    17   15   17       1
    18   17   18       1
    19   18   19       1
    20   18   27       1
    21   19   20       2
    22   20   21       1
    23   21   22      ar
    24   21   27      ar
    25   22   23       1
    26   22   24      ar
    27   24   25      ar
    28   25   26      ar
    29   26   27      ar
    30    1   28       1
    31    1   29       1
    32    2   30       1
    33    1   49       1
    34    6   31       1
    35    6   32       1
    36    7   33       1
    37    7   34       1
    38    8   35       1
    39    9   50       1
    40    9   36       1
    41   10   37       1
    42   10   38       1
    43   11   39       1
    44   13   40       1
    45   14   41       1
    46   15   42       1
    47   16   43       1
    48   17   44       1
    49   19   45       1
    50   23   46       1
    51   23   47       1
    52   25   48       1
@<TRIPOS>SUBSTRUCTURE
     1 SFG1501     1 GROUP             4 A     SFG     0 **** SFG A1501
