3cbp_SFG_1_ligand
  -OEChem-08111718373D

 51 53  0     1  0  0  0  0  0999 V2000
    7.3487   -2.3245    8.5887 H   0  0  0  0  0  0  0  0  0  0  0  0
   12.8538   -1.1144   11.6190 H   0  0  0  0  0  0  0  0  0  0  0  0
   10.7207   -0.8403   14.2470 H   0  0  0  0  0  0  0  0  0  0  0  0
    8.8863   -0.7330   12.8977 H   0  0  0  0  0  0  0  0  0  0  0  0
   11.2585    1.9497   14.0590 H   0  0  0  0  0  0  0  0  0  0  0  0
    9.8122    0.8635   11.0677 H   0  0  0  0  0  0  0  0  0  0  0  0
   12.9161    0.3973   15.1025 H   0  0  0  0  0  0  0  0  0  0  0  0
   13.2693   -0.0565   13.5741 H   0  0  0  0  0  0  0  0  0  0  0  0
   14.8167    4.0283   12.6631 H   0  0  0  0  0  0  0  0  0  0  0  0
   14.9565    3.4557   11.1402 H   0  0  0  0  0  0  0  0  0  0  0  0
   15.1101    1.5087   12.3697 H   0  0  0  0  0  0  0  0  0  0  0  0
   13.5263    1.5289   11.9728 H   0  0  0  0  0  0  0  0  0  0  0  0
   12.3882    3.6362   12.4067 H   0  0  0  0  0  0  0  0  0  0  0  0
   13.4147    2.7396   14.3083 H   0  0  0  0  0  0  0  0  0  0  0  0
   10.7779   -5.1342    7.4838 H   0  0  0  0  0  0  0  0  0  0  0  0
   12.1459   -4.6143    8.4103 H   0  0  0  0  0  0  0  0  0  0  0  0
   15.8737    1.9266   14.4641 H   0  0  0  0  0  0  0  0  0  0  0  0
   15.1113    0.5753   14.9734 H   0  0  0  0  0  0  0  0  0  0  0  0
   11.3773    3.5136   10.4241 H   0  0  0  0  0  0  0  0  0  0  0  0
   12.4960    2.3272   10.5119 H   0  0  0  0  0  0  0  0  0  0  0  0
    8.8471    0.6990   15.3038 H   0  0  0  0  0  0  0  0  0  0  0  0
    7.6193    0.9932   12.5799 H   0  0  0  0  0  0  0  0  0  0  0  0
    8.3070   -2.3970    8.8650 C   0  0  0  0  0  0  0  0  0  0  0  0
   12.1130   -1.4550   11.0400 C   0  0  0  0  0  0  0  0  0  0  0  0
   11.0340   -2.6530    9.6380 C   0  0  0  0  0  0  0  0  0  0  0  0
   10.1560   -1.6470   10.1450 C   0  0  0  0  0  0  0  0  0  0  0  0
   10.4370   -3.5210    8.7010 C   0  0  0  0  0  0  0  0  0  0  0  0
   12.7940    5.4900   11.6720 C   0  0  0  0  0  0  0  0  0  0  0  0
   10.3500    0.0840   14.1560 C   0  0  1  0  0  0  0  0  0  0  0  0
    9.3920    0.1270   12.9660 C   0  0  2  0  0  0  0  0  0  0  0  0
   11.4730    1.0390   13.7060 C   0  0  1  0  0  0  0  0  0  0  0  0
   10.3000    0.3080   11.7410 C   0  0  2  0  0  0  0  0  0  0  0  0
   12.9270    0.6890   14.1460 C   0  0  1  0  0  0  0  0  0  0  0  0
   14.3940    3.4480   11.9670 C   0  0  1  0  0  0  0  0  0  0  0  0
   14.2410    1.9850   12.5030 C   0  0  2  0  0  0  0  0  0  0  0  0
   12.9460    3.9590   11.6420 C   0  0  2  0  0  0  0  0  0  0  0  0
   13.8640    1.9000   14.0030 C   0  0  2  0  0  0  0  0  0  0  0  0
    8.8290   -1.5060    9.7690 N   0  0  0  0  0  0  0  0  0  0  0  0
    9.1000   -3.3890    8.3390 N   0  0  0  0  0  0  0  0  0  0  0  0
   12.2850   -2.5030   10.2220 N   0  0  0  0  0  0  0  0  0  0  0  0
   10.8740   -0.8740   11.0440 N   0  0  0  0  0  0  0  0  0  0  0  0
   11.1860   -4.5100    8.1500 N   0  0  0  0  0  0  0  0  0  0  0  0
   15.0370    1.5680   14.8780 N   0  3  1  0  0  0  0  0  0  0  0  0
   12.3570    3.3160   10.4580 N   0  3  0  0  0  0  0  0  0  0  0  0
   13.2370    6.1120   12.6700 O   0  5  0  0  0  0  0  0  0  0  0  0
   12.1760    6.0380   10.7230 O   0  0  0  0  0  0  0  0  0  0  0  0
   11.3750    1.0900   12.2760 O   0  0  0  0  0  0  0  0  0  0  0  0
    9.8220    0.5000   15.4040 O   0  0  0  0  0  0  0  0  0  0  0  0
    8.4770    1.2400   13.0310 O   0  0  0  0  0  0  0  0  0  0  0  0
   14.9077    1.9808   15.7796 H   0  0  0  0  0  0  0  0  0  0  0  0
   12.7972    3.6700    9.6328 H   0  0  0  0  0  0  0  0  0  0  0  0
  1 23  1  0  0  0  0
  2 24  1  0  0  0  0
  3 29  1  0  0  0  0
  4 30  1  0  0  0  0
  5 31  1  0  0  0  0
  6 32  1  0  0  0  0
  7 33  1  0  0  0  0
  8 33  1  0  0  0  0
  9 34  1  0  0  0  0
 10 34  1  0  0  0  0
 11 35  1  0  0  0  0
 12 35  1  0  0  0  0
 13 36  1  0  0  0  0
 14 37  1  0  0  0  0
 15 42  1  0  0  0  0
 16 42  1  0  0  0  0
 17 43  1  0  0  0  0
 18 43  1  0  0  0  0
 19 44  1  0  0  0  0
 20 44  1  0  0  0  0
 21 48  1  0  0  0  0
 22 49  1  0  0  0  0
 23 38  1  0  0  0  0
 23 39  2  0  0  0  0
 24 40  2  0  0  0  0
 24 41  1  0  0  0  0
 25 26  1  0  0  0  0
 25 27  2  0  0  0  0
 25 40  1  0  0  0  0
 26 38  2  0  0  0  0
 26 41  1  0  0  0  0
 27 39  1  0  0  0  0
 27 42  1  0  0  0  0
 28 36  1  0  0  0  0
 28 45  1  0  0  0  0
 28 46  2  0  0  0  0
 29 30  1  0  0  0  0
 29 31  1  0  0  0  0
 29 48  1  0  0  0  0
 30 32  1  0  0  0  0
 30 49  1  0  0  0  0
 31 33  1  0  0  0  0
 31 47  1  0  0  0  0
 32 41  1  0  0  0  0
 32 47  1  0  0  0  0
 33 37  1  0  0  0  0
 34 35  1  0  0  0  0
 34 36  1  0  0  0  0
 35 37  1  0  0  0  0
 36 44  1  0  0  0  0
 37 43  1  0  0  0  0
 43 50  1  0  0  0  0
 44 51  1  0  0  0  0
M  CHG  3  44   1  45  -1  43   1
M  END
> <scpdb_id>
3cbp_1

$$$$
