4y17_LAE_3_ligand
  -OEChem-08111718373D

 36 36  0     1  0  0  0  0  0999 V2000
    9.7928   17.3591    7.5792 H   0  0  0  0  0  0  0  0  0  0  0  0
    8.4160   18.1717    7.9120 H   0  0  0  0  0  0  0  0  0  0  0  0
    8.6535   17.9123   10.1269 H   0  0  0  0  0  0  0  0  0  0  0  0
    9.3991   16.5457    9.6339 H   0  0  0  0  0  0  0  0  0  0  0  0
    9.5297   20.0935    8.3870 H   0  0  0  0  0  0  0  0  0  0  0  0
   18.1129   20.4611    8.5329 H   0  0  0  0  0  0  0  0  0  0  0  0
   18.0920   19.1023    7.6275 H   0  0  0  0  0  0  0  0  0  0  0  0
   18.7323   20.4771    7.0220 H   0  0  0  0  0  0  0  0  0  0  0  0
   12.1452   21.8706    5.1008 H   0  0  0  0  0  0  0  0  0  0  0  0
   11.0861   20.8524    4.3879 H   0  0  0  0  0  0  0  0  0  0  0  0
   14.2506   19.1065    6.3036 H   0  0  0  0  0  0  0  0  0  0  0  0
   13.9068   20.6688    6.6316 H   0  0  0  0  0  0  0  0  0  0  0  0
   15.9413   20.1089    7.6386 H   0  0  0  0  0  0  0  0  0  0  0  0
   16.5817   21.4837    7.0331 H   0  0  0  0  0  0  0  0  0  0  0  0
   15.2414   21.4365    4.9932 H   0  0  0  0  0  0  0  0  0  0  0  0
   15.1181   20.0595    4.1242 H   0  0  0  0  0  0  0  0  0  0  0  0
   17.2841   20.2427    5.0939 H   0  0  0  0  0  0  0  0  0  0  0  0
   16.5000   18.9387    5.6867 H   0  0  0  0  0  0  0  0  0  0  0  0
   11.1038   18.6760    6.4632 H   0  0  0  0  0  0  0  0  0  0  0  0
   11.0930   19.0990    9.2630 C   0  0  0  0  0  0  0  0  0  0  0  0
   12.8120   19.9080    5.0430 C   0  0  0  0  0  0  0  0  0  0  0  0
   11.0180   20.7820    6.4600 C   0  0  0  0  0  0  0  0  0  0  0  0
    9.3640   18.0220    8.1930 C   0  0  1  0  0  0  0  0  0  0  0  0
    9.4240   17.5450    9.6060 C   0  0  1  0  0  0  0  0  0  0  0  0
   10.1270   19.3160    8.1900 C   0  0  2  0  0  0  0  0  0  0  0  0
   18.0140   20.0990    7.6060 C   0  0  0  0  0  0  0  0  0  0  0  0
   11.7340   20.9600    5.1420 C   0  0  1  0  0  0  0  0  0  0  0  0
   14.0540   20.0010    5.9020 C   0  0  2  0  0  0  0  0  0  0  0  0
   16.6600   20.4870    7.0550 C   0  0  1  0  0  0  0  0  0  0  0  0
   15.2210   20.4380    5.0440 C   0  0  2  0  0  0  0  0  0  0  0  0
   16.5130   19.9380    5.6530 C   0  0  1  0  0  0  0  0  0  0  0  0
   10.7900   19.4770    6.9730 N   0  0  0  0  0  0  0  0  0  0  0  0
   12.1290   19.7140    9.4250 O   0  0  0  0  0  0  0  0  0  0  0  0
   12.6720   18.9830    4.2730 O   0  0  0  0  0  0  0  0  0  0  0  0
   10.6390   21.7580    7.0750 O   0  0  0  0  0  0  0  0  0  0  0  0
   10.5990   18.0000   10.1220 O   0  0  0  0  0  0  0  0  0  0  0  0
  1 23  1  0  0  0  0
  2 23  1  0  0  0  0
  3 24  1  0  0  0  0
  4 24  1  0  0  0  0
  5 25  1  0  0  0  0
  6 26  1  0  0  0  0
  7 26  1  0  0  0  0
  8 26  1  0  0  0  0
  9 27  1  0  0  0  0
 10 27  1  0  0  0  0
 11 28  1  0  0  0  0
 12 28  1  0  0  0  0
 13 29  1  0  0  0  0
 14 29  1  0  0  0  0
 15 30  1  0  0  0  0
 16 30  1  0  0  0  0
 17 31  1  0  0  0  0
 18 31  1  0  0  0  0
 19 32  1  0  0  0  0
 20 25  1  0  0  0  0
 20 33  2  0  0  0  0
 20 36  1  0  0  0  0
 21 27  1  0  0  0  0
 21 28  1  0  0  0  0
 21 34  2  0  0  0  0
 22 27  1  0  0  0  0
 22 32  1  0  0  0  0
 22 35  2  0  0  0  0
 23 24  1  0  0  0  0
 23 25  1  0  0  0  0
 24 36  1  0  0  0  0
 25 32  1  0  0  0  0
 26 29  1  0  0  0  0
 28 30  1  0  0  0  0
 29 31  1  0  0  0  0
 30 31  1  0  0  0  0
M  END
> <scpdb_id>
4y17_3

$$$$
