#    Name: 10621
#    Modification time : Tue Aug  8 22:29:10 2017

@<TRIPOS>MOLECULE
10621
   42     0    15     0     0
SMALL
NO_CHARGES


@<TRIPOS>ATOM
      1 N          20.4570    7.5950    6.5820 N.am      1 SEL1        0.0000 
      2 N          23.2030    5.6090    7.5150 N.am      1 SEL1        0.0000 
      3 N          24.7190    7.5820    7.4310 N.am      1 SEL1        0.0000 
      4 N          26.7900    7.6380    9.7440 N.am      1 SEL1        0.0000 
      5 N          24.4650    6.5630    9.4760 N.am      1 SEL1        0.0000 
      6 N          28.0810   10.4060   16.7940 N.am      1 SEL1        0.0000 
      7 NZ         20.4570    7.5950    6.5820 N.4       2 LYL3        0.0000 
      8 NZ         23.2030    5.6090    7.5150 N.4       2 LYL3        0.0000 
      9 CA         26.6250    7.4310   15.4790 C.3       3 GLL5        0.0000 
     10 CA         27.6020    8.2510   14.6600 C.3       3 GLL5        0.0000 
     11 CA         27.2310    6.2270   13.5110 C.3       3 GLL5        0.0000 
     12 Zn         24.7190    7.5820    7.4310 Zn        4 ZIL7        0.0000 
     13 CZ         27.4998   11.6538   16.2132 C.ar      5 PHL6        0.0000 
     14 N          21.8110    5.1150    5.3500 N.am      6 SEP1        0.0000 
     15 N          23.3760    3.0160    9.3600 N.am      6 SEP1        0.0000 
     16 N          25.8810    3.9040    8.8420 N.am      6 SEP1        0.0000 
     17 N          26.8790    8.2070    6.0680 N.am      6 SEP1        0.0000 
     18 N          29.4000    8.2900   10.7690 N.am      6 SEP1        0.0000 
     19 N          28.9400    8.9130    7.9070 N.am      6 SEP1        0.0000 
     20 N          30.7350    9.5720   18.1040 N.am      6 SEP1        0.0000 
     21 NZ         21.8110    5.1150    5.3500 N.4       7 LYP3        0.0000 
     22 CA         28.2760    5.1100   18.5620 C.3       8 GLP5        0.0000 
     23 CA         30.5650   10.5060   13.3270 C.3       8 GLP5        0.0000 
     24 CA         30.8400    4.9880   13.4220 C.3       8 GLP5        0.0000 
     25 Zn         23.0670    9.7010    6.6520 Zn        9 ZIP7        0.0000 
     26 CZ         30.2965   11.8460   13.6017 C.ar     10 PHP6        0.0000 
     27 N          21.1340    6.3550    5.9660 N.am     11 SEC1        0.0000 
     28 N          23.2895    4.3125    8.4375 N.am     11 SEC1        0.0000 
     29 N          24.5420    4.7565    8.1785 N.am     11 SEC1        0.0000 
     30 N          22.5070    5.3620    6.4325 N.am     11 SEC1        0.0000 
     31 N          25.7990    7.8945    6.7495 N.am     11 SEC1        0.0000 
     32 N          28.0950    7.9640   10.2565 N.am     11 SEC1        0.0000 
     33 N          27.8650    8.2755    8.8255 N.am     11 SEC1        0.0000 
     34 N          25.1730    5.2335    9.1590 N.am     11 SEC1        0.0000 
     35 N          29.4080    9.9890   17.4490 N.am     11 SEC1        0.0000 
     36 NZ         21.1340    6.3550    5.9660 N.4      12 LYC3        0.0000 
     37 NZ         22.5070    5.3620    6.4325 N.4      12 LYC3        0.0000 
     38 CA         27.4505    6.2705   17.0205 C.3      13 GLC5        0.0000 
     39 CA         29.0835    9.3785   13.9935 C.3      13 GLC5        0.0000 
     40 CA         28.9670    5.5700   13.1410 C.3      13 GLC5        0.0000 
     41 Zn         23.8930    8.6415    7.0415 Zn       14 ZIC7        0.0000 
     42 CZ         28.8982   11.7499   14.9074 C.ar     15 PHC6        0.0000 
@<TRIPOS>BOND
@<TRIPOS>SUBSTRUCTURE
     1 SEL1        1 GROUP        1 Z    SEL  0     ROOT SEL Z 0
     2 LYL3        7 GROUP        1 Z    LYL  0     **** LYL Z 2
     3 GLL5        9 GROUP        1 Z    GLL  0     **** GLL Z 4
     4 ZIL7       12 GROUP        1 Z    ZIL  0     **** ZIL Z 5
     5 PHL6       13 GROUP        1 Z    PHL  0     **** PHL Z 6
     6 SEP1       14 GROUP        1 Z    SEP  0     **** SEP Z 7
     7 LYP3       21 GROUP        1 Z    LYP  0     **** LYP Z 9
     8 GLP5       22 GROUP        1 Z    GLP  0     **** GLP Z 11
     9 ZIP7       25 GROUP        1 Z    ZIP  0     **** ZIP Z 12
    10 PHP6       26 GROUP        1 Z    PHP  0     **** PHP Z 13
    11 SEC1       27 GROUP        1 Z    SEC  0     **** SEC Z 14
    12 LYC3       36 GROUP        1 Z    LYC  0     **** LYC Z 16
    13 GLC5       38 GROUP        1 Z    GLC  0     **** GLC Z 18
    14 ZIC7       41 GROUP        1 Z    ZIC  0     **** ZIC Z 19
    15 PHC6       42 GROUP        1 Z    PHC  0     **** PHC Z 20
@<TRIPOS>SET

