#    Name: 27232
#    Modification time : Tue Aug  8 22:08:11 2017

@<TRIPOS>MOLECULE
27232
   63     0     3     0     0
SMALL
NO_CHARGES


@<TRIPOS>ATOM
      1 CA         -1.8590  -11.0890   28.2970 C.3       1 GLL5        0.0000 
      2 CA         -3.4470   -5.0640   25.1480 C.3       1 GLL5        0.0000 
      3 CA         -4.0930   -6.2970   24.5670 C.3       1 GLL5        0.0000 
      4 CA         -2.3420   -8.9410   23.2320 C.3       1 GLL5        0.0000 
      5 CA         -2.1760   -7.8980   24.2740 C.3       1 GLL5        0.0000 
      6 CA         -3.5570   -8.1090   26.1970 C.3       1 GLL5        0.0000 
      7 CA         -4.4960   -7.6820   27.0870 C.3       1 GLL5        0.0000 
      8 CA         -4.6450   -8.2630   28.3070 C.3       1 GLL5        0.0000 
      9 CA          0.4690   -8.0600   23.1780 C.3       1 GLL5        0.0000 
     10 CA          0.7090   -8.7210   21.2870 C.3       1 GLL5        0.0000 
     11 CA         -0.3950   -7.0810   21.6910 C.3       1 GLL5        0.0000 
     12 CA         -3.6260  -10.7350   22.3250 C.3       1 GLL5        0.0000 
     13 CA         -2.7230  -10.8860   21.3260 C.3       1 GLL5        0.0000 
     14 CA         -1.6290  -10.0860   21.2770 C.3       1 GLL5        0.0000 
     15 CA         -0.6240   -8.2120   30.9170 C.3       2 GLP5        0.0000 
     16 CA          2.4970  -11.8200   28.7630 C.3       2 GLP5        0.0000 
     17 CA         -1.8700  -14.6310   27.8350 C.3       2 GLP5        0.0000 
     18 CA         -4.4450  -12.8970   26.3010 C.3       2 GLP5        0.0000 
     19 CA         -0.6590  -12.6580   24.5630 C.3       2 GLP5        0.0000 
     20 CA         -1.1100   -2.4050   27.0630 C.3       2 GLP5        0.0000 
     21 CA         -1.5780   -6.1970   28.7980 C.3       2 GLP5        0.0000 
     22 CA         -4.6730   -1.2390   25.8260 C.3       2 GLP5        0.0000 
     23 CA         -7.6320   -8.1280   24.4830 C.3       2 GLP5        0.0000 
     24 CA          1.0620   -5.5530   25.2850 C.3       2 GLP5        0.0000 
     25 CA         -7.1570  -10.3640   25.4780 C.3       2 GLP5        0.0000 
     26 CA          3.8410   -8.7500   23.4360 C.3       2 GLP5        0.0000 
     27 CA          1.6140  -11.1620   18.3200 C.3       2 GLP5        0.0000 
     28 CA          0.8750   -3.6740   21.9030 C.3       2 GLP5        0.0000 
     29 CA         -7.2610  -10.1040   22.9920 C.3       2 GLP5        0.0000 
     30 CA         -3.9610  -14.9290   20.8120 C.3       2 GLP5        0.0000 
     31 CA          0.6460  -12.1640   18.9660 C.3       2 GLP5        0.0000 
     32 CA          2.8950  -11.0160   22.7540 C.3       2 GLP5        0.0000 
     33 CA         -7.8760  -10.0020   29.9570 C.3       2 GLP5        0.0000 
     34 CA         -2.5080   -6.2680   30.3380 C.3       2 GLP5        0.0000 
     35 CA         -0.8410   -7.4300   18.4260 C.3       2 GLP5        0.0000 
     36 CA         -1.2510  -13.0940   22.9410 C.3       2 GLP5        0.0000 
     37 CA         -1.2415   -9.6505   29.6070 C.3       3 GLC5        0.0000 
     38 CA          0.3190  -11.4545   28.5300 C.3       3 GLC5        0.0000 
     39 CA         -1.8645  -12.8600   28.0660 C.3       3 GLC5        0.0000 
     40 CA         -3.1520  -11.9930   27.2990 C.3       3 GLC5        0.0000 
     41 CA         -1.2590  -11.8735   26.4300 C.3       3 GLC5        0.0000 
     42 CA         -2.2785   -3.7345   26.1055 C.3       3 GLC5        0.0000 
     43 CA         -2.5125   -5.6305   26.9730 C.3       3 GLC5        0.0000 
     44 CA         -4.0600   -3.1515   25.4870 C.3       3 GLC5        0.0000 
     45 CA         -5.8625   -7.2125   24.5250 C.3       3 GLC5        0.0000 
     46 CA         -1.5005  -10.7995   23.8975 C.3       3 GLC5        0.0000 
     47 CA         -0.5570   -6.7255   24.7795 C.3       3 GLC5        0.0000 
     48 CA         -5.3570   -9.2365   25.8375 C.3       3 GLC5        0.0000 
     49 CA         -6.0640   -7.9050   25.7850 C.3       3 GLC5        0.0000 
     50 CA         -5.9010   -9.3135   26.8925 C.3       3 GLC5        0.0000 
     51 CA          2.1550   -8.4050   23.3070 C.3       3 GLC5        0.0000 
     52 CA          1.1615   -9.9415   19.8035 C.3       3 GLC5        0.0000 
     53 CA          0.2400   -5.3775   21.7970 C.3       3 GLC5        0.0000 
     54 CA         -5.3940  -10.1775   22.8927 C.3       3 GLC5        0.0000 
     55 CA         -3.5677  -12.8697   21.3188 C.3       3 GLC5        0.0000 
     56 CA         -0.7650  -11.3250   20.1337 C.3       3 GLC5        0.0000 
     57 CA          1.5785   -9.7545   22.2237 C.3       3 GLC5        0.0000 
     58 CA         -6.0645   -9.3935   29.2310 C.3       3 GLC5        0.0000 
     59 CA         -3.3805   -7.5265   29.4215 C.3       3 GLC5        0.0000 
     60 CA          0.4940   -6.7354   23.7761 C.3       3 GLC5        0.0000 
     61 CA         -0.4275   -7.7565   20.1103 C.3       3 GLC5        0.0000 
     62 CA         -2.5526   -7.3749   27.8411 C.3       3 GLC5        0.0000 
     63 CA         -1.9761  -11.6763   22.6976 C.3       3 GLC5        0.0000 
@<TRIPOS>BOND
@<TRIPOS>SUBSTRUCTURE
     1 GLL5        1 GROUP        1 Z    GLL  0     ROOT GLL Z 4
     2 GLP5       15 GROUP        1 Z    GLP  0     **** GLP Z 11
     3 GLC5       37 GROUP        1 Z    GLC  0     **** GLC Z 18
@<TRIPOS>SET

