@<TRIPOS>MOLECULE
3hq5_GKK_1_ligand
   47    49     1     0     0
SMALL
NO_CHARGES


@<TRIPOS>ATOM
     1 CL1         -1.8590   -11.0890    28.2970 Cl           1 GKK934   0.0000
     2 C1          -3.4660    -4.1970    21.6290 C.3          1 GKK934   0.0000
     3 C2          -3.1340    -4.1110    24.0250 C.3          1 GKK934   0.0000
     4 C3          -3.4470    -5.0640    25.1480 C.3          1 GKK934   0.0000
     5 C4          -4.0930    -6.2970    24.5670 C.3          1 GKK934   0.0000
     6 C5          -4.0830    -6.0750    23.0700 C.3          1 GKK934   0.0000
     7 C9          -3.6260   -10.7350    22.3250 C.ar         1 GKK934   0.0000
     8 C10         -2.7230   -10.8860    21.3260 C.ar         1 GKK934   0.0000
     9 C8          -3.4280    -9.7670    23.2620 C.ar         1 GKK934   0.0000
    10 C7          -2.3420    -8.9410    23.2320 C.ar         1 GKK934   0.0000
    11 C6          -2.1760    -7.8980    24.2740 C.3          1 GKK934   0.0000
    12 N1          -3.2040    -4.9400    22.8360 N.4          1 GKK934   1.0000
    13 C12         -1.4130    -9.1110    22.2230 C.ar         1 GKK934   0.0000
    14 C13         -0.1850    -8.2650    22.1000 C.3          1 GKK934   0.0000
    15 C14         -3.5570    -8.1090    26.1970 C.ar         1 GKK934   0.0000
    16 C15         -4.4960    -7.6820    27.0870 C.ar         1 GKK934   0.0000
    17 N2          -3.3960    -7.5220    24.9300 N.pl3        1 GKK934   0.0000
    18 C16         -4.6450    -8.2630    28.3070 C.ar         1 GKK934   0.0000
    19 C17         -3.8610    -9.3070    28.7030 C.ar         1 GKK934   0.0000
    20 C18         -4.0740    -9.8230    29.9950 C.1          1 GKK934   0.0000
    21 N3          -4.2480   -10.2450    31.0510 N.1          1 GKK934   0.0000
    22 C19         -2.8930    -9.7820    27.8470 C.ar         1 GKK934   0.0000
    23 C20         -2.7680    -9.1680    26.6150 C.ar         1 GKK934   0.0000
    24 C11         -1.6290   -10.0860    21.2770 C.ar         1 GKK934   0.0000
    25 F1           0.4690    -8.0600    23.1780 F            1 GKK934   0.0000
    26 F2           0.7090    -8.7210    21.2870 F            1 GKK934   0.0000
    27 F3          -0.3950    -7.0810    21.6910 F            1 GKK934   0.0000
    28 H1          -3.5013    -4.8253    20.8518 H            1 GKK934   0.0000
    29 H2          -4.3418    -3.7218    21.7136 H            1 GKK934   0.0000
    30 H3          -2.7366    -3.5284    21.4842 H            1 GKK934   0.0000
    31 H4          -2.2197    -3.7208    24.1336 H            1 GKK934   0.0000
    32 H5          -3.8085    -3.3738    23.9852 H            1 GKK934   0.0000
    33 H6          -4.0732    -4.6285    25.7947 H            1 GKK934   0.0000
    34 H7          -2.6027    -5.3169    25.6204 H            1 GKK934   0.0000
    35 H8          -5.0398    -6.3519    24.8842 H            1 GKK934   0.0000
    36 H9          -5.0061    -5.8722    22.7431 H            1 GKK934   0.0000
    37 H10         -3.7341    -6.8865    22.6012 H            1 GKK934   0.0000
    38 H11         -4.4295   -11.3283    22.3736 H            1 GKK934   0.0000
    39 H12         -2.8631   -11.5862    20.6260 H            1 GKK934   0.0000
    40 H13         -4.0994    -9.6579    23.9951 H            1 GKK934   0.0000
    41 H14         -1.7877    -7.0834    23.8432 H            1 GKK934   0.0000
    42 H15         -1.5418    -8.2438    24.9655 H            1 GKK934   0.0000
    43 H16         -5.0925    -6.9197    26.8358 H            1 GKK934   0.0000
    44 H17         -5.3467    -7.9166    28.9296 H            1 GKK934   0.0000
    45 H18         -2.0667    -9.5083    25.9886 H            1 GKK934   0.0000
    46 H19         -0.9660   -10.2073    20.5383 H            1 GKK934   0.0000
    47 H20         -2.2887    -5.3263    22.7219 H            1 GKK934   0.0000
@<TRIPOS>BOND
     1    1   22       1
     2    2   12       1
     3    3    4       1
     4    3   12       1
     5    4    5       1
     6    5    6       1
     7    5   17       1
     8    6   12       1
     9    7    8      ar
    10    7    9      ar
    11    8   24      ar
    12    9   10      ar
    13   10   11       1
    14   10   13      ar
    15   11   17       1
    16   13   14       1
    17   13   24      ar
    18   14   25       1
    19   14   26       1
    20   14   27       1
    21   15   16      ar
    22   15   17       1
    23   15   23      ar
    24   16   18      ar
    25   18   19      ar
    26   19   20       1
    27   19   22      ar
    28   20   21       3
    29   22   23      ar
    30    2   28       1
    31    2   29       1
    32    2   30       1
    33    3   31       1
    34    3   32       1
    35    4   33       1
    36    4   34       1
    37    5   35       1
    38    6   36       1
    39    6   37       1
    40    7   38       1
    41    8   39       1
    42    9   40       1
    43   11   41       1
    44   11   42       1
    45   16   43       1
    46   18   44       1
    47   23   45       1
    48   24   46       1
    49   12   47       1
@<TRIPOS>SUBSTRUCTURE
     1 GKK934      1 GROUP             4 A     GKK     0 **** GKK A 934
