4oay_C2E_3_ligand
  -OEChem-08111718373D

 66 72  0     1  0  0  0  0  0999 V2000
   44.9382  -16.8844   16.8389 H   0  0  0  0  0  0  0  0  0  0  0  0
   41.2777  -16.8617   21.9601 H   0  0  0  0  0  0  0  0  0  0  0  0
   47.8137  -17.7941   19.0567 H   0  0  0  0  0  0  0  0  0  0  0  0
   46.9891  -17.8354   20.4656 H   0  0  0  0  0  0  0  0  0  0  0  0
   44.1058  -17.5727   23.8936 H   0  0  0  0  0  0  0  0  0  0  0  0
   45.2627  -17.6351   22.7428 H   0  0  0  0  0  0  0  0  0  0  0  0
   44.6349  -15.7429   19.8796 H   0  0  0  0  0  0  0  0  0  0  0  0
   46.5857  -13.6109   17.6884 H   0  0  0  0  0  0  0  0  0  0  0  0
   47.4208  -15.7570   19.8564 H   0  0  0  0  0  0  0  0  0  0  0  0
   44.1478  -19.6976   22.8440 H   0  0  0  0  0  0  0  0  0  0  0  0
   43.5837  -18.3161   20.4207 H   0  0  0  0  0  0  0  0  0  0  0  0
   42.2933  -20.0071   19.7608 H   0  0  0  0  0  0  0  0  0  0  0  0
   41.2530  -20.5885   22.1275 H   0  0  0  0  0  0  0  0  0  0  0  0
   41.5856  -12.0444   14.3323 H   0  0  0  0  0  0  0  0  0  0  0  0
   36.7841  -18.9067   18.0020 H   0  0  0  0  0  0  0  0  0  0  0  0
   43.3935   -9.9531   16.4581 H   0  0  0  0  0  0  0  0  0  0  0  0
   42.1694  -10.0589   15.2373 H   0  0  0  0  0  0  0  0  0  0  0  0
   38.2134  -22.2544   18.3717 H   0  0  0  0  0  0  0  0  0  0  0  0
   36.9607  -21.3555   17.5827 H   0  0  0  0  0  0  0  0  0  0  0  0
   42.2585  -22.0773   20.6189 H   0  0  0  0  0  0  0  0  0  0  0  0
   44.5480  -16.0050   16.5660 C   0  0  0  0  0  0  0  0  0  0  0  0
   40.6410  -17.3810   21.3900 C   0  0  0  0  0  0  0  0  0  0  0  0
   43.3100  -14.6140   15.5990 C   0  0  0  0  0  0  0  0  0  0  0  0
   39.0760  -17.7850   20.0750 C   0  0  0  0  0  0  0  0  0  0  0  0
   44.0650  -13.8680   16.3940 C   0  0  0  0  0  0  0  0  0  0  0  0
   39.6600  -18.9680   20.2620 C   0  0  0  0  0  0  0  0  0  0  0  0
   42.3050  -13.9200   14.7980 C   0  0  0  0  0  0  0  0  0  0  0  0
   37.9130  -17.7330   19.1950 C   0  0  0  0  0  0  0  0  0  0  0  0
   43.0060  -11.8460   15.7820 C   0  0  0  0  0  0  0  0  0  0  0  0
   38.2020  -20.1880   18.8430 C   0  0  0  0  0  0  0  0  0  0  0  0
   45.7990  -14.1200   19.4810 C   0  0  0  0  0  0  0  0  0  0  0  0
   46.9510  -17.5600   19.5050 C   0  0  1  0  0  0  0  0  0  0  0  0
   44.2770  -17.6450   22.9110 C   0  0  1  0  0  0  0  0  0  0  0  0
   45.5350  -15.3960   20.1430 C   0  0  1  0  0  0  0  0  0  0  0  0
   46.0620  -14.3770   18.0610 C   0  0  2  0  0  0  0  0  0  0  0  0
   46.6330  -16.1230   19.3610 C   0  0  2  0  0  0  0  0  0  0  0  0
   43.6830  -18.9410   22.3840 C   0  0  2  0  0  0  0  0  0  0  0  0
   43.7990  -19.1670   20.9000 C   0  0  2  0  0  0  0  0  0  0  0  0
   42.6920  -20.1600   20.6650 C   0  0  2  0  0  0  0  0  0  0  0  0
   41.6880  -19.7810   21.7290 C   0  0  2  0  0  0  0  0  0  0  0  0
   43.6380  -15.8920   15.6840 N   0  0  0  0  0  0  0  0  0  0  0  0
   39.6660  -16.8350   20.7530 N   0  0  0  0  0  0  0  0  0  0  0  0
   43.9500  -12.4760   16.5270 N   0  0  0  0  0  0  0  0  0  0  0  0
   39.2080  -20.2420   19.6740 N   0  0  0  0  0  0  0  0  0  0  0  0
   42.2310  -12.5430   14.9110 N   0  0  0  0  0  0  0  0  0  0  0  0
   37.5630  -18.9190   18.6290 N   0  0  0  0  0  0  0  0  0  0  0  0
   44.9890  -14.6740   17.1690 N   0  0  0  0  0  0  0  0  0  0  0  0
   40.7400  -18.8950   21.1980 N   0  0  0  0  0  0  0  0  0  0  0  0
   42.8420  -10.5020   15.8300 N   0  0  0  0  0  0  0  0  0  0  0  0
   37.7460  -21.3870   18.2010 N   0  0  0  0  0  0  0  0  0  0  0  0
   41.5800  -14.4750   14.0240 O   0  0  0  0  0  0  0  0  0  0  0  0
   37.3210  -16.6880   18.8710 O   0  0  0  0  0  0  0  0  0  0  0  0
   46.2090  -12.9880   20.0250 O   0  0  0  0  0  0  0  0  0  0  0  0
   43.3820  -13.9790   21.6990 O   0  0  0  0  0  0  0  0  0  0  0  0
   44.2850  -20.1430   18.0800 O   0  0  0  0  0  0  0  0  0  0  0  0
   43.6730  -16.5600   22.2450 O   0  0  0  0  0  0  0  0  0  0  0  0
   45.8670  -18.1240   18.8540 O   0  0  0  0  0  0  0  0  0  0  0  0
   45.6580  -15.3780   21.5340 O   0  0  0  0  0  0  0  0  0  0  0  0
   46.8890  -15.5080   18.1030 O   0  0  0  0  0  0  0  0  0  0  0  0
   42.3320  -19.0300   22.6860 O   0  0  0  0  0  0  0  0  0  0  0  0
   45.0900  -19.5570   20.5770 O   0  0  0  0  0  0  0  0  0  0  0  0
   43.0550  -21.4980   20.7920 O   0  0  0  0  0  0  0  0  0  0  0  0
   44.8990  -15.0060   23.7340 O   0  5  0  0  0  0  0  0  0  0  0  0
   46.7410  -20.4020   18.9590 O   0  5  0  0  0  0  0  0  0  0  0  0
   44.3160  -15.0860   22.2990 P   0  0  1  0  0  0  0  0  0  0  0  0
   45.4230  -19.6490   19.0150 P   0  0  1  0  0  0  0  0  0  0  0  0
  1 21  1  0  0  0  0
  2 22  1  0  0  0  0
  3 32  1  0  0  0  0
  4 32  1  0  0  0  0
  5 33  1  0  0  0  0
  6 33  1  0  0  0  0
  7 34  1  0  0  0  0
  8 35  1  0  0  0  0
  9 36  1  0  0  0  0
 10 37  1  0  0  0  0
 11 38  1  0  0  0  0
 12 39  1  0  0  0  0
 13 40  1  0  0  0  0
 14 45  1  0  0  0  0
 15 46  1  0  0  0  0
 16 49  1  0  0  0  0
 17 49  1  0  0  0  0
 18 50  1  0  0  0  0
 19 50  1  0  0  0  0
 20 62  1  0  0  0  0
 21 41  2  0  0  0  0
 21 47  1  0  0  0  0
 22 42  2  0  0  0  0
 22 48  1  0  0  0  0
 23 25  2  0  0  0  0
 23 27  1  0  0  0  0
 23 41  1  0  0  0  0
 24 26  2  0  0  0  0
 24 28  1  0  0  0  0
 24 42  1  0  0  0  0
 25 43  1  0  0  0  0
 25 47  1  0  0  0  0
 26 44  1  0  0  0  0
 26 48  1  0  0  0  0
 27 45  1  0  0  0  0
 27 51  2  0  0  0  0
 28 46  1  0  0  0  0
 28 52  2  0  0  0  0
 29 43  2  0  0  0  0
 29 45  1  0  0  0  0
 29 49  1  0  0  0  0
 30 44  2  0  0  0  0
 30 46  1  0  0  0  0
 30 50  1  0  0  0  0
 31 34  1  0  0  0  0
 31 35  1  0  0  0  0
 31 53  2  0  0  0  0
 32 36  1  0  0  0  0
 32 57  1  0  0  0  0
 33 37  1  0  0  0  0
 33 56  1  0  0  0  0
 34 36  1  0  0  0  0
 34 58  1  0  0  0  0
 35 47  1  0  0  0  0
 35 59  1  0  0  0  0
 36 59  1  0  0  0  0
 37 38  1  0  0  0  0
 37 60  1  0  0  0  0
 38 39  1  0  0  0  0
 38 61  1  0  0  0  0
 39 40  1  0  0  0  0
 39 62  1  0  0  0  0
 40 48  1  0  0  0  0
 40 60  1  0  0  0  0
 54 65  2  0  0  0  0
 55 66  2  0  0  0  0
 56 65  1  0  0  0  0
 57 66  1  0  0  0  0
 58 65  1  0  0  0  0
 61 66  1  0  0  0  0
 63 65  1  0  0  0  0
 64 66  1  0  0  0  0
M  CHG  2  64  -1  63  -1
M  END
> <scpdb_id>
4oay_3

$$$$
