3k0f_ATP_4_ligand
  -OEChem-08111718373D

 43 45  0     1  0  0  0  0  0999 V2000
  128.5989   46.9297   33.7210 H   0  0  0  0  0  0  0  0  0  0  0  0
  127.9231   44.4633   39.6850 H   0  0  0  0  0  0  0  0  0  0  0  0
  124.7158   44.3607   40.0087 H   0  0  0  0  0  0  0  0  0  0  0  0
  125.1146   44.4842   37.8643 H   0  0  0  0  0  0  0  0  0  0  0  0
  124.6673   47.0724   40.6273 H   0  0  0  0  0  0  0  0  0  0  0  0
  126.0226   46.9661   37.5678 H   0  0  0  0  0  0  0  0  0  0  0  0
  125.7569   44.7957   41.7341 H   0  0  0  0  0  0  0  0  0  0  0  0
  126.8409   46.0170   41.7405 H   0  0  0  0  0  0  0  0  0  0  0  0
  132.0009   44.4002   34.9088 H   0  0  0  0  0  0  0  0  0  0  0  0
  131.7593   43.7954   36.5137 H   0  0  0  0  0  0  0  0  0  0  0  0
  122.7672   46.1686   39.1965 H   0  0  0  0  0  0  0  0  0  0  0  0
  123.1144   45.3982   37.3407 H   0  0  0  0  0  0  0  0  0  0  0  0
  128.8020   46.4150   34.5540 C   0  0  0  0  0  0  0  0  0  0  0  0
  128.1970   44.7470   38.7660 C   0  0  0  0  0  0  0  0  0  0  0  0
  129.3830   44.9520   36.8940 C   0  0  0  0  0  0  0  0  0  0  0  0
  128.2000   45.7110   36.7610 C   0  0  0  0  0  0  0  0  0  0  0  0
  130.2810   44.9560   35.7940 C   0  0  0  0  0  0  0  0  0  0  0  0
  124.4860   45.2720   39.6670 C   0  0  1  0  0  0  0  0  0  0  0  0
  124.8850   45.3970   38.2020 C   0  0  2  0  0  0  0  0  0  0  0  0
  125.2820   46.3160   40.4040 C   0  0  1  0  0  0  0  0  0  0  0  0
  126.1450   46.2180   38.2200 C   0  0  2  0  0  0  0  0  0  0  0  0
  125.8680   45.7890   41.7020 C   0  0  1  0  0  0  0  0  0  0  0  0
  127.9080   46.4330   35.6160 N   0  0  0  0  0  0  0  0  0  0  0  0
  129.9680   45.6890   34.6470 N   0  0  0  0  0  0  0  0  0  0  0  0
  129.3100   44.3960   38.1360 N   0  0  0  0  0  0  0  0  0  0  0  0
  127.4870   45.5740   37.9230 N   0  0  0  0  0  0  0  0  0  0  0  0
  131.4400   44.3340   35.7340 N   0  0  0  0  0  0  0  0  0  0  0  0
  122.8550   44.7900   48.1050 O   0  5  0  0  0  0  0  0  0  0  0  0
  122.4960   44.7510   45.6070 O   0  5  0  0  0  0  0  0  0  0  0  0
  126.1860   44.8020   44.6090 O   0  5  0  0  0  0  0  0  0  0  0  0
  122.8910   47.4550   44.1670 O   0  5  0  0  0  0  0  0  0  0  0  0
  120.7210   45.6450   47.0740 O   0  0  0  0  0  0  0  0  0  0  0  0
  127.1660   47.0460   44.1120 O   0  0  0  0  0  0  0  0  0  0  0  0
  123.8760   48.9750   45.8260 O   0  0  0  0  0  0  0  0  0  0  0  0
  126.2720   46.8040   39.5240 O   0  0  0  0  0  0  0  0  0  0  0  0
  123.1090   45.5500   39.9040 O   0  0  0  0  0  0  0  0  0  0  0  0
  123.9450   45.9550   37.3350 O   0  0  0  0  0  0  0  0  0  0  0  0
  125.2000   46.3760   42.8290 O   0  0  0  0  0  0  0  0  0  0  0  0
  122.8290   46.9990   46.7220 O   0  0  0  0  0  0  0  0  0  0  0  0
  125.0530   46.9540   45.4020 O   0  0  0  0  0  0  0  0  0  0  0  0
  122.2080   45.5120   46.9060 P   0  0  0  0  0  0  0  0  0  0  0  0
  125.9200   46.2580   44.2420 P   0  0  1  0  0  0  0  0  0  0  0  0
  123.6060   47.5880   45.4680 P   0  0  1  0  0  0  0  0  0  0  0  0
  1 13  1  0  0  0  0
  2 14  1  0  0  0  0
  3 18  1  0  0  0  0
  4 19  1  0  0  0  0
  5 20  1  0  0  0  0
  6 21  1  0  0  0  0
  7 22  1  0  0  0  0
  8 22  1  0  0  0  0
  9 27  1  0  0  0  0
 10 27  1  0  0  0  0
 11 36  1  0  0  0  0
 12 37  1  0  0  0  0
 13 23  1  0  0  0  0
 13 24  2  0  0  0  0
 14 25  2  0  0  0  0
 14 26  1  0  0  0  0
 15 16  1  0  0  0  0
 15 17  2  0  0  0  0
 15 25  1  0  0  0  0
 16 23  2  0  0  0  0
 16 26  1  0  0  0  0
 17 24  1  0  0  0  0
 17 27  1  0  0  0  0
 18 19  1  0  0  0  0
 18 20  1  0  0  0  0
 18 36  1  0  0  0  0
 19 21  1  0  0  0  0
 19 37  1  0  0  0  0
 20 22  1  0  0  0  0
 20 35  1  0  0  0  0
 21 26  1  0  0  0  0
 21 35  1  0  0  0  0
 22 38  1  0  0  0  0
 28 41  1  0  0  0  0
 29 41  1  0  0  0  0
 30 42  1  0  0  0  0
 31 43  1  0  0  0  0
 32 41  2  0  0  0  0
 33 42  2  0  0  0  0
 34 43  2  0  0  0  0
 38 42  1  0  0  0  0
 39 41  1  0  0  0  0
 39 43  1  0  0  0  0
 40 42  1  0  0  0  0
 40 43  1  0  0  0  0
M  CHG  4  28  -1  29  -1  31  -1  30  -1
M  END
> <scpdb_id>
3k0f_4

$$$$
