#    Name: 2856
#    Modification time : Tue Aug  8 22:14:00 2017

@<TRIPOS>MOLECULE
2856
   64     0     9     0     0
SMALL
NO_CHARGES


@<TRIPOS>ATOM
      1 N          -4.5770   -4.0100   17.7520 N.am      1 SEL1        0.0000 
      2 O          -4.5770   -4.0100   17.7520 O.2       2 ALL2        0.0000 
      3 O         -10.7490   -4.4360    8.6390 O.2       2 ALL2        0.0000 
      4 CA         -7.5870   -4.2900   15.6070 C.3       3 GLL5        0.0000 
      5 CA         -6.7720   -4.0810   16.7240 C.3       3 GLL5        0.0000 
      6 CA         -4.7940   -4.5800   15.4310 C.3       3 GLL5        0.0000 
      7 CA         -4.8610   -5.0870   13.0210 C.3       3 GLL5        0.0000 
      8 CA         -5.7660   -5.5340   11.8910 C.3       3 GLL5        0.0000 
      9 CA         -7.8390   -4.8850   13.1400 C.3       3 GLL5        0.0000 
     10 CA         -9.1420   -4.0740   13.0440 C.3       3 GLL5        0.0000 
     11 CA         -9.9600   -4.6070   11.8400 C.3       3 GLL5        0.0000 
     12 CA         -7.2160   -4.9030    9.3000 C.3       3 GLL5        0.0000 
     13 CA         -8.4190   -5.2950    8.3820 C.3       3 GLL5        0.0000 
     14 CA         -9.6670   -5.0840    9.2930 C.3       3 GLL5        0.0000 
     15 CA         -8.9850   -2.9330   10.1670 C.3       3 GLL5        0.0000 
     16 CA         -7.0270   -4.6690   11.8650 C.3       3 GLL5        0.0000 
     17 N          -1.9860   -3.0080   18.3880 N.am      4 SEP1        0.0000 
     18 N          -2.9120   -6.0150   19.6500 N.am      4 SEP1        0.0000 
     19 O          -4.1160   -1.8790   20.0500 O.2       5 ALP2        0.0000 
     20 O         -11.5570   -6.0550    6.3140 O.2       5 ALP2        0.0000 
     21 CA        -11.2210   -6.4040   14.8940 C.3       6 GLP5        0.0000 
     22 CA         -7.9650   -5.8060   20.0620 C.3       6 GLP5        0.0000 
     23 CA         -5.6650   -0.1290   15.1210 C.3       6 GLP5        0.0000 
     24 CA         -1.1910   -6.8510   15.7120 C.3       6 GLP5        0.0000 
     25 CA         -1.6880   -3.6980   10.7000 C.3       6 GLP5        0.0000 
     26 CA         -3.3630   -4.1970    8.4870 C.3       6 GLP5        0.0000 
     27 CA         -6.4600   -8.2900   14.8370 C.3       6 GLP5        0.0000 
     28 CA         -8.7970   -0.8880   16.0030 C.3       6 GLP5        0.0000 
     29 CA        -13.7580   -5.4520   10.4000 C.3       6 GLP5        0.0000 
     30 CA         -5.1630   -7.9900    7.1370 C.3       6 GLP5        0.0000 
     31 CA         -7.2040   -7.1240    4.9560 C.3       6 GLP5        0.0000 
     32 CA        -10.1740   -5.1610    4.4000 C.3       6 GLP5        0.0000 
     33 CA        -10.3190   -9.4640    9.4220 C.3       6 GLP5        0.0000 
     34 CA         -5.0700   -1.2000   10.9470 C.3       6 GLP5        0.0000 
     35 CA        -11.3420   -0.8320    7.4620 C.3       6 GLP5        0.0000 
     36 CA         -3.2910   -1.0040   14.8170 C.3       6 GLP5        0.0000 
     37 CA         -2.6570   -8.0900   14.1280 C.3       6 GLP5        0.0000 
     38 N          -3.2815   -3.5090   18.0700 N.am      7 SEC1        0.0000 
     39 N          -3.7445   -5.0125   18.7010 N.am      7 SEC1        0.0000 
     40 O          -4.3465   -2.9445   18.9010 O.2       8 ALC2        0.0000 
     41 O         -11.1530   -5.2455    7.4765 O.2       8 ALC2        0.0000 
     42 CA         -9.4040   -5.3470   15.2505 C.3       9 GLC5        0.0000 
     43 CA         -7.3685   -4.9435   18.3930 C.3       9 GLC5        0.0000 
     44 CA         -6.2185   -2.1050   15.9225 C.3       9 GLC5        0.0000 
     45 CA         -2.9925   -5.7155   15.5715 C.3       9 GLC5        0.0000 
     46 CA         -3.2745   -4.3925   11.8605 C.3       9 GLC5        0.0000 
     47 CA         -4.5645   -4.8655   10.1890 C.3       9 GLC5        0.0000 
     48 CA         -7.1495   -6.5875   13.9885 C.3       9 GLC5        0.0000 
     49 CA         -8.9695   -2.4810   14.5235 C.3       9 GLC5        0.0000 
     50 CA        -11.8590   -5.0295   11.1200 C.3       9 GLC5        0.0000 
     51 CA         -5.2895   -4.5500    8.8935 C.3       9 GLC5        0.0000 
     52 CA         -6.1895   -6.4465    8.2185 C.3       9 GLC5        0.0000 
     53 CA         -7.8115   -6.2095    6.6690 C.3       9 GLC5        0.0000 
     54 CA         -9.2965   -5.2280    6.3910 C.3       9 GLC5        0.0000 
     55 CA        -11.7125   -5.2680    9.8465 C.3       9 GLC5        0.0000 
     56 CA         -9.9930   -7.2740    9.3575 C.3       9 GLC5        0.0000 
     57 CA         -7.0275   -2.0665   10.5570 C.3       9 GLC5        0.0000 
     58 CA        -10.1635   -1.8825    8.8145 C.3       9 GLC5        0.0000 
     59 CA         -4.3242   -2.7976   14.9960 C.3       9 GLC5        0.0000 
     60 CA         -3.9460   -6.5127   13.8975 C.3       9 GLC5        0.0000 
     61 CA         -5.8867   -6.8002   13.6465 C.3       9 GLC5        0.0000 
     62 CA         -5.6201   -3.0949   11.5537 C.3       9 GLC5        0.0000 
     63 CA        -10.2231   -5.4736   13.6800 C.3       9 GLC5        0.0000 
     64 CA         -8.0169   -2.6084   15.7880 C.3       9 GLC5        0.0000 
@<TRIPOS>BOND
@<TRIPOS>SUBSTRUCTURE
     1 SEL1        1 GROUP        1 Z    SEL  0     ROOT SEL Z 0
     2 ALL2        2 GROUP        1 Z    ALL  0     **** ALL Z 1
     3 GLL5        4 GROUP        1 Z    GLL  0     **** GLL Z 4
     4 SEP1       17 GROUP        1 Z    SEP  0     **** SEP Z 7
     5 ALP2       19 GROUP        1 Z    ALP  0     **** ALP Z 8
     6 GLP5       21 GROUP        1 Z    GLP  0     **** GLP Z 11
     7 SEC1       38 GROUP        1 Z    SEC  0     **** SEC Z 14
     8 ALC2       40 GROUP        1 Z    ALC  0     **** ALC Z 15
     9 GLC5       42 GROUP        1 Z    GLC  0     **** GLC Z 18
@<TRIPOS>SET

