2pub_ADE_1_ligand
  -OEChem-08111718373D

 15 16  0     0  0  0  0  0  0999 V2000
   57.7296    1.7571   -9.1213 H   0  0  0  0  0  0  0  0  0  0  0  0
   58.3758    7.5768  -11.4427 H   0  0  0  0  0  0  0  0  0  0  0  0
   59.1667    6.3103   -9.4069 H   0  0  0  0  0  0  0  0  0  0  0  0
   55.3679    2.3839  -12.8900 H   0  0  0  0  0  0  0  0  0  0  0  0
   55.6197    4.0188  -13.4034 H   0  0  0  0  0  0  0  0  0  0  0  0
   57.6230    2.5620   -9.7050 C   0  0  0  0  0  0  0  0  0  0  0  0
   58.1260    6.6310  -11.2350 C   0  0  0  0  0  0  0  0  0  0  0  0
   57.2810    4.6750  -11.3680 C   0  0  0  0  0  0  0  0  0  0  0  0
   58.0550    4.6860  -10.2310 C   0  0  0  0  0  0  0  0  0  0  0  0
   56.5970    3.4820  -11.7120 C   0  0  0  0  0  0  0  0  0  0  0  0
   58.2560    3.6740   -9.3560 N   0  0  0  0  0  0  0  0  0  0  0  0
   56.8330    2.4510  -10.8160 N   0  0  0  0  0  0  0  0  0  0  0  0
   57.3370    5.9150  -11.9850 N   0  0  0  0  0  0  0  0  0  0  0  0
   58.5780    5.9550  -10.1330 N   0  0  0  0  0  0  0  0  0  0  0  0
   55.7950    3.2780  -12.7550 N   0  0  0  0  0  0  0  0  0  0  0  0
  1  6  1  0  0  0  0
  2  7  1  0  0  0  0
  3 14  1  0  0  0  0
  4 15  1  0  0  0  0
  5 15  1  0  0  0  0
  6 11  1  0  0  0  0
  6 12  2  0  0  0  0
  7 13  2  0  0  0  0
  7 14  1  0  0  0  0
  8  9  1  0  0  0  0
  8 10  2  0  0  0  0
  8 13  1  0  0  0  0
  9 11  2  0  0  0  0
  9 14  1  0  0  0  0
 10 12  1  0  0  0  0
 10 15  1  0  0  0  0
M  END
> <scpdb_id>
2pub_1

$$$$
