@<TRIPOS>MOLECULE
2rfi_SAH_2_ligand
   46    48     1     0     0
SMALL
NO_CHARGES


@<TRIPOS>ATOM
     1 N           23.4400     9.4400    -0.4290 N.4          1 SAH101   1.0000
     2 CA          22.8350    10.7290    -0.8810 C.3          1 SAH101   0.0000
     3 CB          22.6850    11.7070     0.2940 C.3          1 SAH101   0.0000
     4 CG          21.3430    11.5660     1.0030 C.3          1 SAH101   0.0000
     5 SD          19.9930    12.1010    -0.0840 S.3          1 SAH101   0.0000
     6 C           23.6130    11.3250    -2.0570 C.2          1 SAH101   0.0000
     7 O           23.2960    12.4000    -2.5840 O.co2        1 SAH101   0.0000
     8 OXT         24.5840    10.7160    -2.5230 O.co2        1 SAH101  -1.0000
     9 C5'         18.8660    10.7410     0.3390 C.3          1 SAH101   0.0000
    10 C4'         18.9650     9.6040    -0.6680 C.3          1 SAH101   0.0000
    11 O4'         20.1530     8.8690    -0.3970 O.3          1 SAH101   0.0000
    12 C3'         17.8330     8.5760    -0.6170 C.3          1 SAH101   0.0000
    13 O3'         16.7810     8.8950    -1.5000 O.3          1 SAH101   0.0000
    14 C2'         18.5450     7.3130    -1.0550 C.3          1 SAH101   0.0000
    15 O2'         18.7300     7.3170    -2.4540 O.3          1 SAH101   0.0000
    16 C1'         19.9040     7.4690    -0.3870 C.3          1 SAH101   0.0000
    17 N9          19.8390     6.9110     0.9830 N.pl3        1 SAH101   0.0000
    18 C8          19.9480     7.5840     2.1750 C.2          1 SAH101   0.0000
    19 N7          19.8250     6.7110     3.2000 N.2          1 SAH101   0.0000
    20 C5          19.6190     5.4780     2.6890 C.ar         1 SAH101   0.0000
    21 C6          19.4290     4.2350     3.2890 C.ar         1 SAH101   0.0000
    22 N6          19.4190     4.0990     4.6150 N.pl3        1 SAH101   0.0000
    23 N1          19.2290     3.1250     2.4810 N.ar         1 SAH101   0.0000
    24 C2          19.2420     3.2580     1.1130 C.ar         1 SAH101   0.0000
    25 N3          19.4490     4.4860     0.5210 N.ar         1 SAH101   0.0000
    26 C4          19.6320     5.5870     1.2990 C.ar         1 SAH101   0.0000
    27 H1          23.1034     8.6941    -1.0038 H            1 SAH101   0.0000
    28 H2          24.4357     9.4949    -0.5034 H            1 SAH101   0.0000
    29 HA          21.9141    10.5223    -1.2116 H            1 SAH101   0.0000
    30 HB1         22.7675    12.6410    -0.0536 H            1 SAH101   0.0000
    31 HB2         23.4161    11.5309     0.9532 H            1 SAH101   0.0000
    32 HG1         21.3453    12.1313     1.8279 H            1 SAH101   0.0000
    33 HG2         21.2029    10.6086     1.2554 H            1 SAH101   0.0000
    34 H5'1        17.9277    11.0868     0.3480 H            1 SAH101   0.0000
    35 H5'2        19.1018    10.3933     1.2465 H            1 SAH101   0.0000
    36 H4'         19.0193     9.9866    -1.5903 H            1 SAH101   0.0000
    37 H3'         17.4894     8.4788     0.3171 H            1 SAH101   0.0000
    38 H12         17.1461     9.3903    -2.2883 H            1 SAH101   0.0000
    39 H2'         18.0693     6.4901    -0.7443 H            1 SAH101   0.0000
    40 H14         17.9883     7.8294    -2.8869 H            1 SAH101   0.0000
    41 H1'         20.6042     6.9923    -0.9186 H            1 SAH101   0.0000
    42 H16         20.0957     8.5684     2.2703 H            1 SAH101   0.0000
    43 H17         19.2809     3.1970     5.0241 H            1 SAH101   0.0000
    44 H18         19.5496     4.8990     5.2007 H            1 SAH101   0.0000
    45 H19         19.0992     2.4521     0.5384 H            1 SAH101   0.0000
    46 H20         23.1858     9.2681     0.5228 H            1 SAH101   0.0000
@<TRIPOS>BOND
     1    1    2       1
     2    2    3       1
     3    2    6       1
     4    3    4       1
     5    4    5       1
     6    5    9       1
     7    6    7      ar
     8    6    8      ar
     9    9   10       1
    10   10   11       1
    11   10   12       1
    12   11   16       1
    13   12   13       1
    14   12   14       1
    15   14   15       1
    16   14   16       1
    17   16   17       1
    18   17   18       1
    19   17   26       1
    20   18   19       2
    21   19   20       1
    22   20   21      ar
    23   20   26      ar
    24   21   22       1
    25   21   23      ar
    26   23   24      ar
    27   24   25      ar
    28   25   26      ar
    29    1   27       1
    30    1   28       1
    31    2   29       1
    32    3   30       1
    33    3   31       1
    34    4   32       1
    35    4   33       1
    36    1   46       1
    37    9   34       1
    38    9   35       1
    39   10   36       1
    40   12   37       1
    41   13   38       1
    42   14   39       1
    43   15   40       1
    44   16   41       1
    45   18   42       1
    46   22   43       1
    47   22   44       1
    48   24   45       1
@<TRIPOS>SUBSTRUCTURE
     1 SAH101      1 GROUP             4 A     SAH     0 **** SAH A 101
