2rfi_SAH_2_ligand
  -OEChem-08111718373D

 46 48  0     1  0  0  0  0  0999 V2000
   19.0992    2.4521    0.5384 H   0  0  0  0  0  0  0  0  0  0  0  0
   20.0957    8.5684    2.2703 H   0  0  0  0  0  0  0  0  0  0  0  0
   17.4894    8.4788    0.3171 H   0  0  0  0  0  0  0  0  0  0  0  0
   18.0693    6.4901   -0.7443 H   0  0  0  0  0  0  0  0  0  0  0  0
   19.0193    9.9866   -1.5903 H   0  0  0  0  0  0  0  0  0  0  0  0
   20.6042    6.9923   -0.9186 H   0  0  0  0  0  0  0  0  0  0  0  0
   17.9277   11.0868    0.3480 H   0  0  0  0  0  0  0  0  0  0  0  0
   19.1018   10.3933    1.2465 H   0  0  0  0  0  0  0  0  0  0  0  0
   22.7675   12.6410   -0.0536 H   0  0  0  0  0  0  0  0  0  0  0  0
   23.4161   11.5309    0.9532 H   0  0  0  0  0  0  0  0  0  0  0  0
   21.3453   12.1313    1.8279 H   0  0  0  0  0  0  0  0  0  0  0  0
   21.2029   10.6086    1.2554 H   0  0  0  0  0  0  0  0  0  0  0  0
   21.9141   10.5223   -1.2116 H   0  0  0  0  0  0  0  0  0  0  0  0
   19.2809    3.1970    5.0241 H   0  0  0  0  0  0  0  0  0  0  0  0
   19.5496    4.8990    5.2007 H   0  0  0  0  0  0  0  0  0  0  0  0
   24.4357    9.4949   -0.5034 H   0  0  0  0  0  0  0  0  0  0  0  0
   23.1034    8.6941   -1.0038 H   0  0  0  0  0  0  0  0  0  0  0  0
   17.1461    9.3903   -2.2883 H   0  0  0  0  0  0  0  0  0  0  0  0
   17.9883    7.8294   -2.8869 H   0  0  0  0  0  0  0  0  0  0  0  0
   19.2420    3.2580    1.1130 C   0  0  0  0  0  0  0  0  0  0  0  0
   19.9480    7.5840    2.1750 C   0  0  0  0  0  0  0  0  0  0  0  0
   19.6190    5.4780    2.6890 C   0  0  0  0  0  0  0  0  0  0  0  0
   19.6320    5.5870    1.2990 C   0  0  0  0  0  0  0  0  0  0  0  0
   19.4290    4.2350    3.2890 C   0  0  0  0  0  0  0  0  0  0  0  0
   23.6130   11.3250   -2.0570 C   0  0  0  0  0  0  0  0  0  0  0  0
   17.8330    8.5760   -0.6170 C   0  0  1  0  0  0  0  0  0  0  0  0
   18.5450    7.3130   -1.0550 C   0  0  2  0  0  0  0  0  0  0  0  0
   18.9650    9.6040   -0.6680 C   0  0  1  0  0  0  0  0  0  0  0  0
   19.9040    7.4690   -0.3870 C   0  0  2  0  0  0  0  0  0  0  0  0
   18.8660   10.7410    0.3390 C   0  0  1  0  0  0  0  0  0  0  0  0
   22.6850   11.7070    0.2940 C   0  0  1  0  0  0  0  0  0  0  0  0
   21.3430   11.5660    1.0030 C   0  0  2  0  0  0  0  0  0  0  0  0
   22.8350   10.7290   -0.8810 C   0  0  2  0  0  0  0  0  0  0  0  0
   19.4490    4.4860    0.5210 N   0  0  0  0  0  0  0  0  0  0  0  0
   19.2290    3.1250    2.4810 N   0  0  0  0  0  0  0  0  0  0  0  0
   19.8250    6.7110    3.2000 N   0  0  0  0  0  0  0  0  0  0  0  0
   19.8390    6.9110    0.9830 N   0  0  0  0  0  0  0  0  0  0  0  0
   19.4190    4.0990    4.6150 N   0  0  0  0  0  0  0  0  0  0  0  0
   23.4400    9.4400   -0.4290 N   0  3  0  0  0  0  0  0  0  0  0  0
   24.5840   10.7160   -2.5230 O   0  5  0  0  0  0  0  0  0  0  0  0
   23.2960   12.4000   -2.5840 O   0  0  0  0  0  0  0  0  0  0  0  0
   20.1530    8.8690   -0.3970 O   0  0  0  0  0  0  0  0  0  0  0  0
   16.7810    8.8950   -1.5000 O   0  0  0  0  0  0  0  0  0  0  0  0
   18.7300    7.3170   -2.4540 O   0  0  0  0  0  0  0  0  0  0  0  0
   19.9930   12.1010   -0.0840 S   0  0  0  0  0  0  0  0  0  0  0  0
   23.1858    9.2681    0.5228 H   0  0  0  0  0  0  0  0  0  0  0  0
  1 20  1  0  0  0  0
  2 21  1  0  0  0  0
  3 26  1  0  0  0  0
  4 27  1  0  0  0  0
  5 28  1  0  0  0  0
  6 29  1  0  0  0  0
  7 30  1  0  0  0  0
  8 30  1  0  0  0  0
  9 31  1  0  0  0  0
 10 31  1  0  0  0  0
 11 32  1  0  0  0  0
 12 32  1  0  0  0  0
 13 33  1  0  0  0  0
 14 38  1  0  0  0  0
 15 38  1  0  0  0  0
 16 39  1  0  0  0  0
 17 39  1  0  0  0  0
 18 43  1  0  0  0  0
 19 44  1  0  0  0  0
 20 34  1  0  0  0  0
 20 35  2  0  0  0  0
 21 36  2  0  0  0  0
 21 37  1  0  0  0  0
 22 23  1  0  0  0  0
 22 24  2  0  0  0  0
 22 36  1  0  0  0  0
 23 34  2  0  0  0  0
 23 37  1  0  0  0  0
 24 35  1  0  0  0  0
 24 38  1  0  0  0  0
 25 33  1  0  0  0  0
 25 40  1  0  0  0  0
 25 41  2  0  0  0  0
 26 27  1  0  0  0  0
 26 28  1  0  0  0  0
 26 43  1  0  0  0  0
 27 29  1  0  0  0  0
 27 44  1  0  0  0  0
 28 30  1  0  0  0  0
 28 42  1  0  0  0  0
 29 37  1  0  0  0  0
 29 42  1  0  0  0  0
 30 45  1  0  0  0  0
 31 32  1  0  0  0  0
 31 33  1  0  0  0  0
 32 45  1  0  0  0  0
 33 39  1  0  0  0  0
 39 46  1  0  0  0  0
M  CHG  2  39   1  40  -1
M  END
> <scpdb_id>
2rfi_2

$$$$
