#    Name: 3550
#    Modification time : Tue Aug  8 19:53:52 2017

@<TRIPOS>MOLECULE
3550
   41     0     9     0     0
SMALL
NO_CHARGES


@<TRIPOS>ATOM
      1 N          18.8960   44.1230   44.1030 N.am      1 SEL1        0.0000 
      2 N          16.9550   43.4540   45.6270 N.am      1 SEL1        0.0000 
      3 N          19.9580   39.0960   45.4610 N.am      1 SEL1        0.0000 
      4 O          19.9580   39.0960   45.4610 O.2       2 ALL2        0.0000 
      5 O          26.5100   39.8820   41.4610 O.2       2 ALL2        0.0000 
      6 CA         17.5770   41.2200   42.6600 C.3       3 GLL5        0.0000 
      7 CA         18.7400   40.3570   43.2430 C.3       3 GLL5        0.0000 
      8 CA         20.7230   39.3770   43.2320 C.3       3 GLL5        0.0000 
      9 CA         19.5560   41.0970   44.2470 C.3       3 GLL5        0.0000 
     10 N          18.3190   45.4660   41.5340 N.am      4 SEP1        0.0000 
     11 N          19.4370   46.7890   44.7410 N.am      4 SEP1        0.0000 
     12 N          20.8220   44.0850   42.0070 N.am      4 SEP1        0.0000 
     13 N          14.3180   42.8400   46.5040 N.am      4 SEP1        0.0000 
     14 N          17.1760   39.1480   46.6280 N.am      4 SEP1        0.0000 
     15 O          20.2550   39.1390   47.9660 O.2       5 ALP2        0.0000 
     16 O          22.3480   39.7500   47.7980 O.2       5 ALP2        0.0000 
     17 O          26.4050   42.7630   40.8510 O.2       5 ALP2        0.0000 
     18 O          29.2730   39.0530   41.9200 O.2       5 ALP2        0.0000 
     19 CA         13.9720   41.2610   41.4660 C.3       6 GLP5        0.0000 
     20 CA         14.2430   43.9410   43.8920 C.3       6 GLP5        0.0000 
     21 CA         14.5180   39.0450   43.5660 C.3       6 GLP5        0.0000 
     22 CA         17.4140   36.5530   44.6080 C.3       6 GLP5        0.0000 
     23 CA         21.2450   38.4360   39.6330 C.3       6 GLP5        0.0000 
     24 CA         16.7360   37.8380   40.9340 C.3       6 GLP5        0.0000 
     25 CA         22.6070   43.4160   45.1300 C.3       6 GLP5        0.0000 
     26 N          18.6075   44.7945   42.8185 N.am      7 SEC1        0.0000 
     27 N          19.1665   45.4560   44.4220 N.am      7 SEC1        0.0000 
     28 N          19.8590   44.1040   43.0550 N.am      7 SEC1        0.0000 
     29 N          15.6365   43.1470   46.0655 N.am      7 SEC1        0.0000 
     30 N          18.5670   39.1220   46.0445 N.am      7 SEC1        0.0000 
     31 O          20.1065   39.1175   46.7135 O.2       8 ALC2        0.0000 
     32 O          21.1530   39.4230   46.6295 O.2       8 ALC2        0.0000 
     33 O          26.4575   41.3225   41.1560 O.2       8 ALC2        0.0000 
     34 O          27.8915   39.4675   41.6905 O.2       8 ALC2        0.0000 
     35 CA         15.7745   41.2405   42.0630 C.3       9 GLC5        0.0000 
     36 CA         15.9100   42.5805   43.2760 C.3       9 GLC5        0.0000 
     37 CA         16.6290   39.7010   43.4045 C.3       9 GLC5        0.0000 
     38 CA         18.0770   38.4550   43.9255 C.3       9 GLC5        0.0000 
     39 CA         20.9840   38.9065   41.4325 C.3       9 GLC5        0.0000 
     40 CA         17.4473   39.3132   41.9427 C.3       9 GLC5        0.0000 
     41 CA         21.3237   42.0003   44.7758 C.3       9 GLC5        0.0000 
@<TRIPOS>BOND
@<TRIPOS>SUBSTRUCTURE
     1 SEL1        1 GROUP        1 Z    SEL  0     ROOT SEL Z 0
     2 ALL2        4 GROUP        1 Z    ALL  0     **** ALL Z 1
     3 GLL5        6 GROUP        1 Z    GLL  0     **** GLL Z 4
     4 SEP1       10 GROUP        1 Z    SEP  0     **** SEP Z 7
     5 ALP2       15 GROUP        1 Z    ALP  0     **** ALP Z 8
     6 GLP5       19 GROUP        1 Z    GLP  0     **** GLP Z 11
     7 SEC1       26 GROUP        1 Z    SEC  0     **** SEC Z 14
     8 ALC2       31 GROUP        1 Z    ALC  0     **** ALC Z 15
     9 GLC5       35 GROUP        1 Z    GLC  0     **** GLC Z 18
@<TRIPOS>SET

