1i5z_CMP_3_ligand
  -OEChem-08111718373D

 33 36  0     1  0  0  0  0  0999 V2000
   24.8453   36.3795   43.4263 H   0  0  0  0  0  0  0  0  0  0  0  0
   21.7970   41.6767   41.9287 H   0  0  0  0  0  0  0  0  0  0  0  0
   17.8234   41.4613   41.7214 H   0  0  0  0  0  0  0  0  0  0  0  0
   16.7549   40.6507   42.6530 H   0  0  0  0  0  0  0  0  0  0  0  0
   18.3558   39.5402   43.6733 H   0  0  0  0  0  0  0  0  0  0  0  0
   20.0612   41.7912   43.7343 H   0  0  0  0  0  0  0  0  0  0  0  0
   21.3749   40.4558   44.9570 H   0  0  0  0  0  0  0  0  0  0  0  0
   20.6069   38.3861   43.3001 H   0  0  0  0  0  0  0  0  0  0  0  0
   27.4157   39.4618   41.4053 H   0  0  0  0  0  0  0  0  0  0  0  0
   26.3621   40.8014   41.0966 H   0  0  0  0  0  0  0  0  0  0  0  0
   20.0926   39.3748   46.4119 H   0  0  0  0  0  0  0  0  0  0  0  0
   24.6480   37.2970   43.0810 C   0  0  0  0  0  0  0  0  0  0  0  0
   22.4400   40.9270   42.0850 C   0  0  0  0  0  0  0  0  0  0  0  0
   24.2000   39.7780   42.1190 C   0  0  0  0  0  0  0  0  0  0  0  0
   23.2150   38.9900   42.7230 C   0  0  0  0  0  0  0  0  0  0  0  0
   25.4960   39.2140   42.0230 C   0  0  0  0  0  0  0  0  0  0  0  0
   17.5770   41.2200   42.6600 C   0  0  1  0  0  0  0  0  0  0  0  0
   18.7400   40.3570   43.2430 C   0  0  2  0  0  0  0  0  0  0  0  0
   19.5560   41.0970   44.2470 C   0  0  2  0  0  0  0  0  0  0  0  0
   20.5250   40.0720   44.5960 C   0  0  2  0  0  0  0  0  0  0  0  0
   20.7230   39.3770   43.2320 C   0  0  2  0  0  0  0  0  0  0  0  0
   23.3750   37.7170   43.2350 N   0  0  0  0  0  0  0  0  0  0  0  0
   25.6950   37.9500   42.5220 N   0  0  0  0  0  0  0  0  0  0  0  0
   23.6930   40.9940   41.7230 N   0  0  0  0  0  0  0  0  0  0  0  0
   22.0630   39.7400   42.7030 N   0  0  0  0  0  0  0  0  0  0  0  0
   26.5100   39.8820   41.4610 N   0  0  0  0  0  0  0  0  0  0  0  0
   18.8960   44.1230   44.1030 O   0  0  0  0  0  0  0  0  0  0  0  0
   17.2460   42.4620   43.3610 O   0  0  0  0  0  0  0  0  0  0  0  0
   19.7420   39.9730   42.3520 O   0  0  0  0  0  0  0  0  0  0  0  0
   18.8370   41.8020   45.2630 O   0  0  0  0  0  0  0  0  0  0  0  0
   19.9580   39.0960   45.4610 O   0  0  0  0  0  0  0  0  0  0  0  0
   16.9550   43.4540   45.6270 O   0  5  0  0  0  0  0  0  0  0  0  0
   18.0170   43.0680   44.6800 P   0  0  1  0  0  0  0  0  0  0  0  0
  1 12  1  0  0  0  0
  2 13  1  0  0  0  0
  3 17  1  0  0  0  0
  4 17  1  0  0  0  0
  5 18  1  0  0  0  0
  6 19  1  0  0  0  0
  7 20  1  0  0  0  0
  8 21  1  0  0  0  0
  9 26  1  0  0  0  0
 10 26  1  0  0  0  0
 11 31  1  0  0  0  0
 12 22  1  0  0  0  0
 12 23  2  0  0  0  0
 13 24  2  0  0  0  0
 13 25  1  0  0  0  0
 14 15  1  0  0  0  0
 14 16  2  0  0  0  0
 14 24  1  0  0  0  0
 15 22  2  0  0  0  0
 15 25  1  0  0  0  0
 16 23  1  0  0  0  0
 16 26  1  0  0  0  0
 17 18  1  0  0  0  0
 17 28  1  0  0  0  0
 18 19  1  0  0  0  0
 18 29  1  0  0  0  0
 19 20  1  0  0  0  0
 19 30  1  0  0  0  0
 20 21  1  0  0  0  0
 20 31  1  0  0  0  0
 21 25  1  0  0  0  0
 21 29  1  0  0  0  0
 27 33  2  0  0  0  0
 28 33  1  0  0  0  0
 30 33  1  0  0  0  0
 32 33  1  0  0  0  0
M  CHG  1  32  -1
M  END
> <scpdb_id>
1i5z_3

$$$$
