#    Name: 32524
#    Modification time : Tue Aug  8 22:19:21 2017

@<TRIPOS>MOLECULE
32524
   51     0    15     0     0
SMALL
NO_CHARGES


@<TRIPOS>ATOM
      1 N          13.3840  -80.9380  222.6390 N.am      1 SEL1        0.0000 
      2 N          11.0520  -80.4360  221.7960 N.am      1 SEL1        0.0000 
      3 N          10.1190  -81.2550  225.6820 N.am      1 SEL1        0.0000 
      4 N          11.4550  -79.2240  226.5460 N.am      1 SEL1        0.0000 
      5 N          10.8000  -82.0780  231.0070 N.am      1 SEL1        0.0000 
      6 N           9.7850  -79.4220  228.7420 N.am      1 SEL1        0.0000 
      7 N           9.2080  -79.4040  231.5340 N.am      1 SEL1        0.0000 
      8 N          16.3580  -79.0060  233.6530 N.am      1 SEL1        0.0000 
      9 O           9.2080  -79.4040  231.5340 O.2       2 ALL2        0.0000 
     10 NZ         13.3840  -80.9380  222.6390 N.4       3 LYL3        0.0000 
     11 CA         10.4380  -82.5200  228.6340 C.3       4 GLL5        0.0000 
     12 CA         10.5330  -79.7290  231.1020 C.3       4 GLL5        0.0000 
     13 Zn         11.4740  -82.3970  223.3550 Zn        5 ZIL7        0.0000 
     14 Zn         10.1190  -81.2550  225.6820 Zn        5 ZIL7        0.0000 
     15 Zn         11.4930  -83.8180  226.2060 Zn        5 ZIL7        0.0000 
     16 N          13.9020  -78.4940  220.9430 N.am      6 SEP1        0.0000 
     17 N           8.8020  -79.1590  222.8540 N.am      6 SEP1        0.0000 
     18 N           7.8380  -79.2230  225.5540 N.am      6 SEP1        0.0000 
     19 N          11.6100  -76.6460  226.0410 N.am      6 SEP1        0.0000 
     20 N           9.0050  -83.7560  233.1650 N.am      6 SEP1        0.0000 
     21 N           7.1770  -78.5540  228.4630 N.am      6 SEP1        0.0000 
     22 N           7.9360  -77.3530  232.9870 N.am      6 SEP1        0.0000 
     23 N          17.5750  -77.3530  231.2570 N.am      6 SEP1        0.0000 
     24 O           7.0190  -80.8380  230.9240 O.2       7 ALP2        0.0000 
     25 NZ         14.9610  -78.3280  220.1620 N.4       8 LYP3        0.0000 
     26 NZ         15.3340  -80.0880  225.9320 N.4       8 LYP3        0.0000 
     27 CA          6.8000  -81.0750  226.7520 C.3       9 GLP5        0.0000 
     28 CA          7.2100  -84.8360  228.0810 C.3       9 GLP5        0.0000 
     29 CA         12.5110  -76.3890  231.0820 C.3       9 GLP5        0.0000 
     30 CA         10.0580  -76.7210  233.8860 C.3       9 GLP5        0.0000 
     31 Zn          9.8840  -83.1390  224.7270 Zn       10 ZIP7        0.0000 
     32 Zn         10.9840  -86.0820  226.3840 Zn       10 ZIP7        0.0000 
     33 N          13.6430  -79.7160  221.7910 N.am     11 SEC1        0.0000 
     34 N           9.9270  -79.7975  222.3250 N.am     11 SEC1        0.0000 
     35 N           8.9785  -80.2390  225.6180 N.am     11 SEC1        0.0000 
     36 N          11.5325  -77.9350  226.2935 N.am     11 SEC1        0.0000 
     37 N           9.9025  -82.9170  232.0860 N.am     11 SEC1        0.0000 
     38 N           8.4810  -78.9880  228.6025 N.am     11 SEC1        0.0000 
     39 N           8.5720  -78.3785  232.2605 N.am     11 SEC1        0.0000 
     40 N          16.9665  -78.1795  232.4550 N.am     11 SEC1        0.0000 
     41 O           8.1135  -80.1210  231.2290 O.2      12 ALC2        0.0000 
     42 NZ         14.1725  -79.6330  221.4005 N.4      13 LYC3        0.0000 
     43 NZ         14.3590  -80.5130  224.2855 N.4      13 LYC3        0.0000 
     44 CA          8.6190  -81.7975  227.6930 C.3      14 GLC5        0.0000 
     45 CA          8.8240  -83.6780  228.3575 C.3      14 GLC5        0.0000 
     46 CA         11.5220  -78.0590  231.0920 C.3      14 GLC5        0.0000 
     47 CA         10.2955  -78.2250  232.4940 C.3      14 GLC5        0.0000 
     48 Zn         10.6790  -82.7680  224.0410 Zn       15 ZIC7        0.0000 
     49 Zn         10.0015  -82.1970  225.2045 Zn       15 ZIC7        0.0000 
     50 Zn         10.6885  -83.4785  225.4665 Zn       15 ZIC7        0.0000 
     51 Zn         11.2385  -84.9500  226.2950 Zn       15 ZIC7        0.0000 
@<TRIPOS>BOND
@<TRIPOS>SUBSTRUCTURE
     1 SEL1        1 GROUP        1 Z    SEL  0     ROOT SEL Z 0
     2 ALL2        9 GROUP        1 Z    ALL  0     **** ALL Z 1
     3 LYL3       10 GROUP        1 Z    LYL  0     **** LYL Z 2
     4 GLL5       11 GROUP        1 Z    GLL  0     **** GLL Z 4
     5 ZIL7       13 GROUP        1 Z    ZIL  0     **** ZIL Z 5
     6 SEP1       16 GROUP        1 Z    SEP  0     **** SEP Z 7
     7 ALP2       24 GROUP        1 Z    ALP  0     **** ALP Z 8
     8 LYP3       25 GROUP        1 Z    LYP  0     **** LYP Z 9
     9 GLP5       27 GROUP        1 Z    GLP  0     **** GLP Z 11
    10 ZIP7       31 GROUP        1 Z    ZIP  0     **** ZIP Z 12
    11 SEC1       33 GROUP        1 Z    SEC  0     **** SEC Z 14
    12 ALC2       41 GROUP        1 Z    ALC  0     **** ALC Z 15
    13 LYC3       42 GROUP        1 Z    LYC  0     **** LYC Z 16
    14 GLC5       44 GROUP        1 Z    GLC  0     **** GLC Z 18
    15 ZIC7       48 GROUP        1 Z    ZIC  0     **** ZIC Z 19
@<TRIPOS>SET

