3q23_G2P_1_ligand
  -OEChem-08111718373D

 46 48  0     1  0  0  0  0  0999 V2000
   13.4340  -81.5419  230.3396 H   0  0  0  0  0  0  0  0  0  0  0  0
   11.5188  -80.1988  229.3441 H   0  0  0  0  0  0  0  0  0  0  0  0
   11.1446  -78.9486  231.2319 H   0  0  0  0  0  0  0  0  0  0  0  0
    9.1250  -81.6579  229.9948 H   0  0  0  0  0  0  0  0  0  0  0  0
   10.6144  -81.0550  232.7374 H   0  0  0  0  0  0  0  0  0  0  0  0
   10.1014  -83.4460  228.8048 H   0  0  0  0  0  0  0  0  0  0  0  0
    9.9927  -82.1484  227.8194 H   0  0  0  0  0  0  0  0  0  0  0  0
   13.4655  -80.9314  226.6578 H   0  0  0  0  0  0  0  0  0  0  0  0
   13.3087  -81.7383  225.2468 H   0  0  0  0  0  0  0  0  0  0  0  0
   15.0103  -78.0792  235.4987 H   0  0  0  0  0  0  0  0  0  0  0  0
   11.5270  -78.2265  236.1516 H   0  0  0  0  0  0  0  0  0  0  0  0
   13.0499  -77.6284  236.7200 H   0  0  0  0  0  0  0  0  0  0  0  0
   10.1673  -79.5052  227.8217 H   0  0  0  0  0  0  0  0  0  0  0  0
    8.5480  -79.9695  231.0394 H   0  0  0  0  0  0  0  0  0  0  0  0
   13.5230  -81.0120  231.1830 C   0  0  0  0  0  0  0  0  0  0  0  0
   14.3780  -79.8470  232.8210 C   0  0  0  0  0  0  0  0  0  0  0  0
   13.0050  -79.9560  233.0100 C   0  0  0  0  0  0  0  0  0  0  0  0
   15.1180  -79.1390  233.7650 C   0  0  0  0  0  0  0  0  0  0  0  0
   13.1360  -78.7010  234.9790 C   0  0  0  0  0  0  0  0  0  0  0  0
   10.5690  -80.1980  229.6570 C   0  0  1  0  0  0  0  0  0  0  0  0
   10.5330  -79.7290  231.1020 C   0  0  2  0  0  0  0  0  0  0  0  0
   10.1110  -81.6400  229.8290 C   0  0  1  0  0  0  0  0  0  0  0  0
   11.0620  -80.9530  231.8490 C   0  0  2  0  0  0  0  0  0  0  0  0
   10.4380  -82.5200  228.6340 C   0  0  1  0  0  0  0  0  0  0  0  0
   12.8490  -81.4850  226.0980 C   0  0  1  0  0  0  0  0  0  0  0  0
   14.6810  -80.5120  231.6800 N   0  0  0  0  0  0  0  0  0  0  0  0
   12.4000  -79.3790  234.0820 N   0  0  0  0  0  0  0  0  0  0  0  0
   14.4800  -78.5860  234.8190 N   0  0  0  0  0  0  0  0  0  0  0  0
   12.5120  -80.6800  232.0080 N   0  0  0  0  0  0  0  0  0  0  0  0
   12.5170  -78.1360  236.0430 N   0  0  0  0  0  0  0  0  0  0  0  0
   11.4930  -83.8180  226.2060 O   0  5  0  0  0  0  0  0  0  0  0  0
   11.4550  -79.2240  226.5460 O   0  5  0  0  0  0  0  0  0  0  0  0
   13.3840  -80.9380  222.6390 O   0  5  0  0  0  0  0  0  0  0  0  0
   11.0520  -80.4360  221.7960 O   0  5  0  0  0  0  0  0  0  0  0  0
   16.3580  -79.0060  233.6530 O   0  0  0  0  0  0  0  0  0  0  0  0
   13.7930  -83.6820  227.3440 O   0  0  0  0  0  0  0  0  0  0  0  0
   10.1190  -81.2550  225.6820 O   0  0  0  0  0  0  0  0  0  0  0  0
   11.4740  -82.3970  223.3550 O   0  0  0  0  0  0  0  0  0  0  0  0
   10.8000  -82.0780  231.0070 O   0  0  0  0  0  0  0  0  0  0  0  0
    9.7850  -79.4220  228.7420 O   0  0  0  0  0  0  0  0  0  0  0  0
    9.2080  -79.4040  231.5340 O   0  0  0  0  0  0  0  0  0  0  0  0
   11.8430  -82.5640  228.4210 O   0  0  0  0  0  0  0  0  0  0  0  0
   11.6550  -79.9940  224.1450 O   0  0  0  0  0  0  0  0  0  0  0  0
   12.4850  -83.0090  227.0100 P   0  0  1  0  0  0  0  0  0  0  0  0
   11.4080  -80.4600  225.6720 P   0  0  2  0  0  0  0  0  0  0  0  0
   11.8950  -81.0140  222.9030 P   0  0  0  0  0  0  0  0  0  0  0  0
  1 15  1  0  0  0  0
  2 20  1  0  0  0  0
  3 21  1  0  0  0  0
  4 22  1  0  0  0  0
  5 23  1  0  0  0  0
  6 24  1  0  0  0  0
  7 24  1  0  0  0  0
  8 25  1  0  0  0  0
  9 25  1  0  0  0  0
 10 28  1  0  0  0  0
 11 30  1  0  0  0  0
 12 30  1  0  0  0  0
 13 40  1  0  0  0  0
 14 41  1  0  0  0  0
 15 26  2  0  0  0  0
 15 29  1  0  0  0  0
 16 17  2  0  0  0  0
 16 18  1  0  0  0  0
 16 26  1  0  0  0  0
 17 27  1  0  0  0  0
 17 29  1  0  0  0  0
 18 28  1  0  0  0  0
 18 35  2  0  0  0  0
 19 27  2  0  0  0  0
 19 28  1  0  0  0  0
 19 30  1  0  0  0  0
 20 21  1  0  0  0  0
 20 22  1  0  0  0  0
 20 40  1  0  0  0  0
 21 23  1  0  0  0  0
 21 41  1  0  0  0  0
 22 24  1  0  0  0  0
 22 39  1  0  0  0  0
 23 29  1  0  0  0  0
 23 39  1  0  0  0  0
 24 42  1  0  0  0  0
 25 44  1  0  0  0  0
 25 45  1  0  0  0  0
 31 44  1  0  0  0  0
 32 45  1  0  0  0  0
 33 46  1  0  0  0  0
 34 46  1  0  0  0  0
 36 44  2  0  0  0  0
 37 45  2  0  0  0  0
 38 46  2  0  0  0  0
 42 44  1  0  0  0  0
 43 45  1  0  0  0  0
 43 46  1  0  0  0  0
M  CHG  4  33  -1  34  -1  32  -1  31  -1
M  END
> <scpdb_id>
3q23_1

$$$$
