@<TRIPOS>MOLECULE
2j4d_MHF_1_ligand
   54    57     1     0     0
SMALL
NO_CHARGES


@<TRIPOS>ATOM
     1 N1           7.3960    30.8700   -25.7850 N.2          1 MHF1499   0.0000
     2 C2           8.2330    31.9290   -25.5170 C.2          1 MHF1499   0.0000
     3 NA2          8.4490    32.2910   -24.2200 N.pl3        1 MHF1499   0.0000
     4 N3           8.8370    32.6120   -26.5040 N.pl3        1 MHF1499   0.0000
     5 C4           8.6260    32.2970   -27.8180 C.2          1 MHF1499   0.0000
     6 O4           9.1830    32.9440   -28.7140 O.2          1 MHF1499   0.0000
     7 C4A          7.7500    31.2180   -28.1380 C.2          1 MHF1499   0.0000
     8 N5           7.4240    30.8310   -29.4630 N.pl3        1 MHF1499   0.0000
     9 C6           6.2490    29.9430   -29.7660 C.3          1 MHF1499   0.0000
    10 C7           6.3080    28.7780   -28.7520 C.3          1 MHF1499   0.0000
    11 N8           6.2930    29.4170   -27.3950 N.pl3        1 MHF1499   0.0000
    12 C8A          7.1400    30.4940   -27.0930 C.2          1 MHF1499   0.0000
    13 C9           6.3830    29.5420   -31.2620 C.3          1 MHF1499   0.0000
    14 N10          7.7020    30.1100   -31.6340 N.pl3        1 MHF1499   0.0000
    15 C11          7.9040    31.2820   -30.7710 C.3          1 MHF1499   0.0000
    16 C12          8.2190    31.0850   -35.7890 C.ar         1 MHF1499   0.0000
    17 C13          7.7610    29.7970   -35.3770 C.ar         1 MHF1499   0.0000
    18 C14          7.5730    29.5040   -34.0270 C.ar         1 MHF1499   0.0000
    19 C15          7.8300    30.4820   -33.0300 C.ar         1 MHF1499   0.0000
    20 C16          8.2730    31.7990   -33.4490 C.ar         1 MHF1499   0.0000
    21 C17          8.4610    32.0940   -34.8140 C.ar         1 MHF1499   0.0000
    22 C            8.4570    31.3360   -37.2360 C.2          1 MHF1499   0.0000
    23 O            8.2570    30.4300   -38.0370 O.2          1 MHF1499   0.0000
    24 N            8.9070    32.5330   -37.6760 N.am         1 MHF1499   0.0000
    25 CA           9.1600    32.7390   -39.1020 C.3          1 MHF1499   0.0000
    26 CB           8.9820    34.2110   -39.4720 C.3          1 MHF1499   0.0000
    27 CG           7.6020    34.7530   -39.2000 C.3          1 MHF1499   0.0000
    28 CD           6.5290    33.9810   -39.9350 C.2          1 MHF1499   0.0000
    29 OE1          6.4680    34.0940   -41.1780 O.co2        1 MHF1499   0.0000
    30 OE2          5.7610    33.2470   -39.2720 O.co2        1 MHF1499  -1.0000
    31 CT          10.5840    32.2980   -39.4530 C.2          1 MHF1499   0.0000
    32 O1          11.3960    32.1130   -38.5220 O.co2        1 MHF1499   0.0000
    33 O2          10.8820    32.1460   -40.6560 O.co2        1 MHF1499  -1.0000
    34 HA21         9.0546    33.0584   -24.0093 H            1 MHF1499   0.0000
    35 HA22         8.0018    31.7890   -23.4797 H            1 MHF1499   0.0000
    36 H3           5.4011    30.4565   -29.6339 H            1 MHF1499   0.0000
    37 H4           7.1468    28.2484   -28.8784 H            1 MHF1499   0.0000
    38 H5           5.5153    28.1786   -28.8636 H            1 MHF1499   0.0000
    39 H6           5.6695    29.0699   -26.6945 H            1 MHF1499   0.0000
    40 H7           5.6496    29.9439   -31.8103 H            1 MHF1499   0.0000
    41 H8           6.3745    28.5480   -31.3712 H            1 MHF1499   0.0000
    42 H9           8.8711    31.5329   -30.7297 H            1 MHF1499   0.0000
    43 H10          7.3709    32.0624   -31.0976 H            1 MHF1499   0.0000
    44 H11          7.5727    29.0964   -36.0653 H            1 MHF1499   0.0000
    45 H12          7.2537    28.5954   -33.7579 H            1 MHF1499   0.0000
    46 H13          8.4466    32.5045   -32.7618 H            1 MHF1499   0.0000
    47 H14          8.7621    33.0050   -35.0958 H            1 MHF1499   0.0000
    48 H15          9.0667    33.2768   -37.0270 H            1 MHF1499   0.0000
    49 HA           8.5110    32.1908   -39.6295 H            1 MHF1499   0.0000
    50 HB1          9.1730    34.3145   -40.4481 H            1 MHF1499   0.0000
    51 HB2          9.6399    34.7488   -38.9448 H            1 MHF1499   0.0000
    52 HG1          7.5682    35.7088   -39.4921 H            1 MHF1499   0.0000
    53 HG2          7.4224    34.6981   -38.2178 H            1 MHF1499   0.0000
    54 H21          9.4528    33.3653   -26.2732 H            1 MHF1499   0.0000
@<TRIPOS>BOND
     1    1    2       2
     2    1   12       1
     3    2    3       1
     4    2    4       1
     5    4    5       1
     6    5    6       2
     7    5    7       1
     8    7    8       1
     9    7   12       2
    10    8    9       1
    11    8   15       1
    12    9   10       1
    13    9   13       1
    14   10   11       1
    15   11   12       1
    16   13   14       1
    17   14   15       1
    18   14   19       1
    19   16   17      ar
    20   16   21      ar
    21   16   22       1
    22   17   18      ar
    23   18   19      ar
    24   19   20      ar
    25   20   21      ar
    26   22   23       2
    27   22   24      am
    28   24   25       1
    29   25   26       1
    30   25   31       1
    31   26   27       1
    32   27   28       1
    33   28   29      ar
    34   28   30      ar
    35   31   32      ar
    36   31   33      ar
    37    4   54       1
    38    3   34       1
    39    3   35       1
    40    9   36       1
    41   10   37       1
    42   10   38       1
    43   11   39       1
    44   13   40       1
    45   13   41       1
    46   15   42       1
    47   15   43       1
    48   17   44       1
    49   18   45       1
    50   20   46       1
    51   21   47       1
    52   24   48       1
    53   25   49       1
    54   26   50       1
    55   26   51       1
    56   27   52       1
    57   27   53       1
@<TRIPOS>SUBSTRUCTURE
     1 MHF1499     1 GROUP             4 A     MHF     0 **** MHF A1499
