#    Name: 16266
#    Modification time : Tue Aug  8 21:21:54 2017

@<TRIPOS>MOLECULE
16266
   72     0    12     0     0
SMALL
NO_CHARGES


@<TRIPOS>ATOM
      1 N         -50.9040   12.1650    4.9290 N.am      1 SEL1        0.0000 
      2 O         -41.9120   10.8090   -2.1740 O.2       2 ALL2        0.0000 
      3 OD1       -41.9120   10.8090   -2.1740 O.co2     3 ASL4        0.0000 
      4 CA        -48.6770   11.3860    4.9340 C.3       4 GLL5        0.0000 
      5 CA        -47.1590   15.2780    6.4850 C.3       4 GLL5        0.0000 
      6 CA        -43.3300   15.6020    6.0860 C.3       4 GLL5        0.0000 
      7 CA        -42.2260   16.3840    6.4140 C.3       4 GLL5        0.0000 
      8 CA        -43.2910   17.0200    8.4580 C.3       4 GLL5        0.0000 
      9 CA        -42.2390   11.3510    2.9020 C.3       4 GLL5        0.0000 
     10 CA        -41.2760   11.0990    0.2130 C.3       4 GLL5        0.0000 
     11 CA        -43.7730   11.9590   -3.4570 C.3       4 GLL5        0.0000 
     12 CA        -47.3200   11.5590    5.1700 C.3       4 GLL5        0.0000 
     13 CA        -49.1720   13.6400    5.6840 C.3       4 GLL5        0.0000 
     14 CA        -44.4010   16.2170    8.1080 C.3       4 GLL5        0.0000 
     15 CA        -42.7880   11.4350    4.1770 C.3       4 GLL5        0.0000 
     16 CA        -44.2300   13.1880    3.4110 C.3       4 GLL5        0.0000 
     17 CA        -43.6870   13.1140    2.1360 C.3       4 GLL5        0.0000 
     18 CA        -42.1890   17.0900    7.5960 C.3       4 GLL5        0.0000 
     19 N         -53.1760   11.4820    6.6580 N.am      5 SEP1        0.0000 
     20 N         -53.4560   13.2380    3.5480 N.am      5 SEP1        0.0000 
     21 O         -43.7870    8.7720   -1.8250 O.2       6 ALP2        0.0000 
     22 OD1       -43.7870    8.7720   -1.8250 O.co2     7 ASP4        0.0000 
     23 CA        -49.8440    7.5140    6.4940 C.3       8 GLP5        0.0000 
     24 CA        -48.0140   13.6710    1.1780 C.3       8 GLP5        0.0000 
     25 CA        -48.3280   18.9270    5.3000 C.3       8 GLP5        0.0000 
     26 CA        -49.8540   15.2510    9.3080 C.3       8 GLP5        0.0000 
     27 CA        -47.7020   12.5420    9.3760 C.3       8 GLP5        0.0000 
     28 CA        -39.8150   14.3870    3.9590 C.3       8 GLP5        0.0000 
     29 CA        -39.9070   15.7370    3.2620 C.3       8 GLP5        0.0000 
     30 CA        -41.0570   15.2860   11.9100 C.3       8 GLP5        0.0000 
     31 CA        -41.4800    7.2220    2.8690 C.3       8 GLP5        0.0000 
     32 CA        -41.2640    7.0910    1.3530 C.3       8 GLP5        0.0000 
     33 CA        -43.8570   15.2410   -1.3280 C.3       8 GLP5        0.0000 
     34 CA        -46.0530   10.5080    1.7370 C.3       8 GLP5        0.0000 
     35 CA        -49.7250   15.2100    2.1140 C.3       8 GLP5        0.0000 
     36 CA        -47.2870   18.1200   10.1360 C.3       8 GLP5        0.0000 
     37 CA        -43.7520   20.3010    9.2410 C.3       8 GLP5        0.0000 
     38 CA        -44.0590    8.9850    7.3620 C.3       8 GLP5        0.0000 
     39 CA        -45.7370   17.0680    2.3320 C.3       8 GLP5        0.0000 
     40 CA        -41.1080   15.7830    2.3310 C.3       8 GLP5        0.0000 
     41 CA        -39.8480   10.9830    6.3600 C.3       8 GLP5        0.0000 
     42 CA        -46.6640   11.5630   -5.5410 C.3       8 GLP5        0.0000 
     43 CA        -42.3400   14.5110    9.6590 C.3       8 GLP5        0.0000 
     44 N         -52.0400   11.8235    5.7935 N.am      9 SEC1        0.0000 
     45 N         -52.1800   12.7015    4.2385 N.am      9 SEC1        0.0000 
     46 O         -42.8495    9.7905   -1.9995 O.2      10 ALC2        0.0000 
     47 OD1       -42.8495    9.7905   -1.9995 O.co2    11 ASC4        0.0000 
     48 CA        -49.2605    9.4500    5.7140 C.3      12 GLC5        0.0000 
     49 CA        -48.3455   12.5285    3.0560 C.3      12 GLC5        0.0000 
     50 CA        -47.7435   17.1025    5.8925 C.3      12 GLC5        0.0000 
     51 CA        -48.5065   15.2645    7.8965 C.3      12 GLC5        0.0000 
     52 CA        -47.4305   13.9100    7.9305 C.3      12 GLC5        0.0000 
     53 CA        -41.5725   14.9945    5.0225 C.3      12 GLC5        0.0000 
     54 CA        -41.0665   16.0605    4.8380 C.3      12 GLC5        0.0000 
     55 CA        -42.1740   16.1530   10.1840 C.3      12 GLC5        0.0000 
     56 CA        -41.8595    9.2865    2.8855 C.3      12 GLC5        0.0000 
     57 CA        -41.2700    9.0950    0.7830 C.3      12 GLC5        0.0000 
     58 CA        -43.8150   13.6000   -2.3925 C.3      12 GLC5        0.0000 
     59 CA        -47.0257   10.9902    3.3945 C.3      12 GLC5        0.0000 
     60 CA        -49.1760   14.4972    7.5530 C.3      12 GLC5        0.0000 
     61 CA        -49.1638   14.3220    3.8939 C.3      12 GLC5        0.0000 
     62 CA        -45.5665   17.3693    9.2095 C.3      12 GLC5        0.0000 
     63 CA        -43.6613   18.4685    8.6543 C.3      12 GLC5        0.0000 
     64 CA        -43.6740   10.4390    5.8342 C.3      12 GLC5        0.0000 
     65 CA        -44.8478   15.1095    2.5528 C.3      12 GLC5        0.0000 
     66 CA        -45.9862   13.4110    1.9758 C.3      12 GLC5        0.0000 
     67 CA        -42.2139   14.2292    2.3266 C.3      12 GLC5        0.0000 
     68 CA        -41.1807   11.1880    4.9497 C.3      12 GLC5        0.0000 
     69 CA        -41.2895   13.0045    3.7816 C.3      12 GLC5        0.0000 
     70 CA        -45.0113   11.7215   -4.8153 C.3      12 GLC5        0.0000 
     71 CA        -42.4848   15.4323    8.1946 C.3      12 GLC5        0.0000 
     72 CA        -44.6731   11.4427    2.3831 C.3      12 GLC5        0.0000 
@<TRIPOS>BOND
@<TRIPOS>SUBSTRUCTURE
     1 SEL1        1 GROUP        1 Z    SEL  0     ROOT SEL Z 0
     2 ALL2        2 GROUP        1 Z    ALL  0     **** ALL Z 1
     3 ASL4        3 GROUP        1 Z    ASL  0     **** ASL Z 3
     4 GLL5        4 GROUP        1 Z    GLL  0     **** GLL Z 4
     5 SEP1       19 GROUP        1 Z    SEP  0     **** SEP Z 7
     6 ALP2       21 GROUP        1 Z    ALP  0     **** ALP Z 8
     7 ASP4       22 GROUP        1 Z    ASP  0     **** ASP Z 10
     8 GLP5       23 GROUP        1 Z    GLP  0     **** GLP Z 11
     9 SEC1       44 GROUP        1 Z    SEC  0     **** SEC Z 14
    10 ALC2       46 GROUP        1 Z    ALC  0     **** ALC Z 15
    11 ASC4       47 GROUP        1 Z    ASC  0     **** ASC Z 17
    12 GLC5       48 GROUP        1 Z    GLC  0     **** GLC Z 18
@<TRIPOS>SET

