#    Name: 9491
#    Modification time : Wed Aug  9 00:37:20 2017

@<TRIPOS>MOLECULE
9491
   93     0    12     0     0
SMALL
NO_CHARGES


@<TRIPOS>ATOM
      1 N           4.4020   51.7840   26.5760 N.am      1 SEL1        0.0000 
      2 O          -3.9320   54.7120   19.7410 O.2       2 ALL2        0.0000 
      3 O           4.4020   51.7840   26.5760 O.2       2 ALL2        0.0000 
      4 OD1        -3.9320   54.7120   19.7410 O.co2     3 ASL4        0.0000 
      5 CA         -1.9600   53.8010   18.4030 C.3       4 GLL5        0.0000 
      6 CA         -4.6090   54.3590   22.2140 C.3       4 GLL5        0.0000 
      7 CA         -3.4350   53.5470   24.9120 C.3       4 GLL5        0.0000 
      8 CA         -1.3290   51.4190   27.4700 C.3       4 GLL5        0.0000 
      9 CA         -0.9350   49.0100   28.4040 C.3       4 GLL5        0.0000 
     10 CA          0.4420   48.9400   27.6670 C.3       4 GLL5        0.0000 
     11 CA          0.8050   52.7540   26.9090 C.3       4 GLL5        0.0000 
     12 CA          2.2040   52.8580   26.6870 C.3       4 GLL5        0.0000 
     13 CA         -3.9470   50.1380   29.0730 C.3       4 GLL5        0.0000 
     14 CA         -5.3410   49.8980   29.1540 C.3       4 GLL5        0.0000 
     15 CA         -6.0260   49.3020   28.0590 C.3       4 GLL5        0.0000 
     16 CA         -3.9130   49.1800   26.8020 C.3       4 GLL5        0.0000 
     17 CA         -2.5510   54.4550   17.1200 C.3       4 GLL5        0.0000 
     18 CA         -3.1760   52.8610   23.6760 C.3       4 GLL5        0.0000 
     19 CA         -2.8460   53.0890   26.1300 C.3       4 GLL5        0.0000 
     20 CA         -1.7340   51.2670   24.9020 C.3       4 GLL5        0.0000 
     21 CA          2.4340   50.4520   27.1110 C.3       4 GLL5        0.0000 
     22 CA         -5.3110   48.9420   26.8840 C.3       4 GLL5        0.0000 
     23 CA         -2.3210   51.7240   23.6980 C.3       4 GLL5        0.0000 
     24 N           6.5730   52.0330   28.6910 N.am      5 SEP1        0.0000 
     25 N           6.7020   50.3910   25.5530 N.am      5 SEP1        0.0000 
     26 O          -1.7270   56.4300   20.6640 O.2       6 ALP2        0.0000 
     27 O           4.5030   54.1700   25.3150 O.2       6 ALP2        0.0000 
     28 O           6.4450   53.1460   25.1410 O.2       6 ALP2        0.0000 
     29 OD1        -2.5670   58.3880   20.1590 O.co2     7 ASP4        0.0000 
     30 OD1        -1.7270   56.4300   20.6640 O.co2     7 ASP4        0.0000 
     31 CA         -1.0290   50.3570   20.5790 C.3       8 GLP5        0.0000 
     32 CA         -4.5970   57.7390   23.2950 C.3       8 GLP5        0.0000 
     33 CA         -5.5520   50.4080   22.3720 C.3       8 GLP5        0.0000 
     34 CA         -4.3910   57.6050   24.7980 C.3       8 GLP5        0.0000 
     35 CA         -1.6530   54.4720   30.2910 C.3       8 GLP5        0.0000 
     36 CA         -1.6620   45.0250   27.4680 C.3       8 GLP5        0.0000 
     37 CA         -0.4010   46.3660   31.7170 C.3       8 GLP5        0.0000 
     38 CA         -1.1870   47.8100   23.6700 C.3       8 GLP5        0.0000 
     39 CA          0.8750   45.4220   26.4660 C.3       8 GLP5        0.0000 
     40 CA         -2.2320   55.1900   29.0700 C.3       8 GLP5        0.0000 
     41 CA          3.5580   56.1090   28.5300 C.3       8 GLP5        0.0000 
     42 CA          1.9340   51.0350   22.6750 C.3       8 GLP5        0.0000 
     43 CA         -2.7530   53.6770   30.9620 C.3       8 GLP5        0.0000 
     44 CA         -6.1550   53.8150   27.2780 C.3       8 GLP5        0.0000 
     45 CA         -6.5400   50.5870   33.2870 C.3       8 GLP5        0.0000 
     46 CA         -9.6620   47.7670   27.6090 C.3       8 GLP5        0.0000 
     47 CA          1.2360   53.8140   16.0650 C.3       8 GLP5        0.0000 
     48 CA         -2.4850   51.7550   14.5150 C.3       8 GLP5        0.0000 
     49 CA         -2.1870   55.5630   13.6820 C.3       8 GLP5        0.0000 
     50 CA         -6.5950   51.4970   24.3880 C.3       8 GLP5        0.0000 
     51 CA          0.4460   54.0970   23.5530 C.3       8 GLP5        0.0000 
     52 CA          3.1250   49.1470   23.6810 C.3       8 GLP5        0.0000 
     53 CA         -6.8580   46.2460   29.6660 C.3       8 GLP5        0.0000 
     54 CA          2.6740   48.9780   30.8600 C.3       8 GLP5        0.0000 
     55 N           5.4875   51.9085   27.6335 N.am      9 SEC1        0.0000 
     56 N           5.5520   51.0875   26.0645 N.am      9 SEC1        0.0000 
     57 O          -2.8295   55.5710   20.2025 O.2      10 ALC2        0.0000 
     58 O           4.4525   52.9770   25.9455 O.2      10 ALC2        0.0000 
     59 O           5.4235   52.4650   25.8585 O.2      10 ALC2        0.0000 
     60 OD1        -3.2495   56.5500   19.9500 O.co2    11 ASC4        0.0000 
     61 OD1        -2.8295   55.5710   20.2025 O.co2    11 ASC4        0.0000 
     62 CA         -1.4945   52.0790   19.4910 C.3      12 GLC5        0.0000 
     63 CA         -4.6030   56.0490   22.7545 C.3      12 GLC5        0.0000 
     64 CA         -5.0805   52.3835   22.2930 C.3      12 GLC5        0.0000 
     65 CA         -3.9130   55.5760   24.8550 C.3      12 GLC5        0.0000 
     66 CA         -1.4910   52.9455   28.8805 C.3      12 GLC5        0.0000 
     67 CA         -1.2985   47.0175   27.9360 C.3      12 GLC5        0.0000 
     68 CA         -0.6680   47.6880   30.0605 C.3      12 GLC5        0.0000 
     69 CA         -0.3725   48.3750   25.6685 C.3      12 GLC5        0.0000 
     70 CA          0.6585   47.1810   27.0665 C.3      12 GLC5        0.0000 
     71 CA         -0.7135   53.9720   27.9895 C.3      12 GLC5        0.0000 
     72 CA          2.8810   54.4835   27.6085 C.3      12 GLC5        0.0000 
     73 CA          2.0690   51.9465   24.6810 C.3      12 GLC5        0.0000 
     74 CA         -3.3500   51.9075   30.0175 C.3      12 GLC5        0.0000 
     75 CA         -5.7480   51.8565   28.2160 C.3      12 GLC5        0.0000 
     76 CA         -5.9405   50.2425   31.2205 C.3      12 GLC5        0.0000 
     77 CA         -7.8440   48.5345   27.8340 C.3      12 GLC5        0.0000 
     78 CA         -2.5500   48.4950   25.2360 C.3      12 GLC5        0.0000 
     79 CA         -0.5098   53.9710   16.9133 C.3      12 GLC5        0.0000 
     80 CA         -2.3702   52.9415   16.1382 C.3      12 GLC5        0.0000 
     81 CA         -2.5597   55.3368   15.4975 C.3      12 GLC5        0.0000 
     82 CA         -4.1502   51.3503   23.0295 C.3      12 GLC5        0.0000 
     83 CA         -4.6478   53.5665   26.3995 C.3      12 GLC5        0.0000 
     84 CA         -4.8677   52.4075   24.9545 C.3      12 GLC5        0.0000 
     85 CA         -2.3247   53.8535   27.6030 C.3      12 GLC5        0.0000 
     86 CA         -1.6073   49.6527   23.9850 C.3      12 GLC5        0.0000 
     87 CA         -0.0468   51.2652   23.4875 C.3      12 GLC5        0.0000 
     88 CA          0.9753   53.4515   25.1755 C.3      12 GLC5        0.0000 
     89 CA          2.7518   50.0992   25.3436 C.3      12 GLC5        0.0000 
     90 CA         -6.1776   47.7585   28.7056 C.3      12 GLC5        0.0000 
     91 CA         -5.6929   50.3240   25.7624 C.3      12 GLC5        0.0000 
     92 CA          1.8684   49.4999   29.1573 C.3      12 GLC5        0.0000 
     93 CA         -1.0856   53.2941   24.3062 C.3      12 GLC5        0.0000 
@<TRIPOS>BOND
@<TRIPOS>SUBSTRUCTURE
     1 SEL1        1 GROUP        1 Z    SEL  0     ROOT SEL Z 0
     2 ALL2        2 GROUP        1 Z    ALL  0     **** ALL Z 1
     3 ASL4        4 GROUP        1 Z    ASL  0     **** ASL Z 3
     4 GLL5        5 GROUP        1 Z    GLL  0     **** GLL Z 4
     5 SEP1       24 GROUP        1 Z    SEP  0     **** SEP Z 7
     6 ALP2       26 GROUP        1 Z    ALP  0     **** ALP Z 8
     7 ASP4       29 GROUP        1 Z    ASP  0     **** ASP Z 10
     8 GLP5       31 GROUP        1 Z    GLP  0     **** GLP Z 11
     9 SEC1       55 GROUP        1 Z    SEC  0     **** SEC Z 14
    10 ALC2       57 GROUP        1 Z    ALC  0     **** ALC Z 15
    11 ASC4       60 GROUP        1 Z    ASC  0     **** ASC Z 17
    12 GLC5       62 GROUP        1 Z    GLC  0     **** GLC Z 18
@<TRIPOS>SET

