1uom_PTI_1_ligand
  -OEChem-08111718373D

 65 69  0     1  0  0  0  0  0999 V2000
   -7.0105   49.1362   28.1157 H   0  0  0  0  0  0  0  0  0  0  0  0
   -5.8437   50.1478   29.9816 H   0  0  0  0  0  0  0  0  0  0  0  0
   -5.7924   48.5212   26.1151 H   0  0  0  0  0  0  0  0  0  0  0  0
   -3.0353   53.5740   26.9838 H   0  0  0  0  0  0  0  0  0  0  0  0
   -1.1366   50.4652   24.8891 H   0  0  0  0  0  0  0  0  0  0  0  0
    0.2317   53.5702   26.8368 H   0  0  0  0  0  0  0  0  0  0  0  0
   -3.4719   50.5569   29.8469 H   0  0  0  0  0  0  0  0  0  0  0  0
   -3.4127   48.9223   25.9754 H   0  0  0  0  0  0  0  0  0  0  0  0
   -4.0312   54.3498   24.9194 H   0  0  0  0  0  0  0  0  0  0  0  0
   -2.1309   51.2377   22.8451 H   0  0  0  0  0  0  0  0  0  0  0  0
    2.6090   53.7432   26.4583 H   0  0  0  0  0  0  0  0  0  0  0  0
    3.0149   49.6409   27.1798 H   0  0  0  0  0  0  0  0  0  0  0  0
    0.3188   48.4361   26.8121 H   0  0  0  0  0  0  0  0  0  0  0  0
    1.0899   48.4515   28.2514 H   0  0  0  0  0  0  0  0  0  0  0  0
   -3.1848   53.8171   16.6825 H   0  0  0  0  0  0  0  0  0  0  0  0
   -1.8094   54.6753   16.4864 H   0  0  0  0  0  0  0  0  0  0  0  0
   -1.4962   52.9496   18.1580 H   0  0  0  0  0  0  0  0  0  0  0  0
   -1.3047   54.4285   18.8236 H   0  0  0  0  0  0  0  0  0  0  0  0
   -3.7108   56.1729   16.6832 H   0  0  0  0  0  0  0  0  0  0  0  0
   -2.6736   56.4118   17.9217 H   0  0  0  0  0  0  0  0  0  0  0  0
   -1.3809   48.1185   28.3236 H   0  0  0  0  0  0  0  0  0  0  0  0
   -0.7660   49.2124   29.3686 H   0  0  0  0  0  0  0  0  0  0  0  0
   -2.6978   53.1461   20.2594 H   0  0  0  0  0  0  0  0  0  0  0  0
   -3.7008   52.7964   19.0192 H   0  0  0  0  0  0  0  0  0  0  0  0
   -4.8760   56.2972   18.8123 H   0  0  0  0  0  0  0  0  0  0  0  0
   -5.1321   54.8670   18.0670 H   0  0  0  0  0  0  0  0  0  0  0  0
   -1.5593   52.0588   28.2032 H   0  0  0  0  0  0  0  0  0  0  0  0
   -5.3923   53.5024   20.4748 H   0  0  0  0  0  0  0  0  0  0  0  0
   -5.7302   55.0943   20.6095 H   0  0  0  0  0  0  0  0  0  0  0  0
   -5.4251   54.2558   22.7826 H   0  0  0  0  0  0  0  0  0  0  0  0
   -4.1389   55.2076   22.4566 H   0  0  0  0  0  0  0  0  0  0  0  0
    4.8273   52.6593   26.3461 H   0  0  0  0  0  0  0  0  0  0  0  0
   -6.0260   49.3020   28.0590 C   0  0  0  0  0  0  0  0  0  0  0  0
   -5.3410   49.8980   29.1540 C   0  0  0  0  0  0  0  0  0  0  0  0
   -5.3110   48.9420   26.8840 C   0  0  0  0  0  0  0  0  0  0  0  0
   -2.8460   53.0890   26.1300 C   0  0  0  0  0  0  0  0  0  0  0  0
   -1.7340   51.2670   24.9020 C   0  0  0  0  0  0  0  0  0  0  0  0
    0.8050   52.7540   26.9090 C   0  0  0  0  0  0  0  0  0  0  0  0
   -3.9470   50.1380   29.0730 C   0  0  0  0  0  0  0  0  0  0  0  0
   -3.9130   49.1800   26.8020 C   0  0  0  0  0  0  0  0  0  0  0  0
   -3.4350   53.5470   24.9120 C   0  0  0  0  0  0  0  0  0  0  0  0
   -2.3210   51.7240   23.6980 C   0  0  0  0  0  0  0  0  0  0  0  0
    2.2040   52.8580   26.6870 C   0  0  0  0  0  0  0  0  0  0  0  0
    2.4340   50.4520   27.1110 C   0  0  0  0  0  0  0  0  0  0  0  0
   -1.9890   51.9450   26.1420 C   0  0  0  0  0  0  0  0  0  0  0  0
    0.2030   51.4910   27.2360 C   0  0  0  0  0  0  0  0  0  0  0  0
    1.0320   50.3300   27.3360 C   0  0  0  0  0  0  0  0  0  0  0  0
   -3.2130   49.7890   27.9000 C   0  0  0  0  0  0  0  0  0  0  0  0
   -3.1760   52.8610   23.6760 C   0  0  0  0  0  0  0  0  0  0  0  0
    3.0240   51.7120   26.7890 C   0  0  0  0  0  0  0  0  0  0  0  0
    0.4420   48.9400   27.6670 C   0  0  1  0  0  0  0  0  0  0  0  0
   -2.5510   54.4550   17.1200 C   0  0  2  0  0  0  0  0  0  0  0  0
   -1.9600   53.8010   18.4030 C   0  0  1  0  0  0  0  0  0  0  0  0
   -3.3140   55.7660   17.5060 C   0  0  2  0  0  0  0  0  0  0  0  0
   -0.9350   49.0100   28.4040 C   0  0  1  0  0  0  0  0  0  0  0  0
   -3.1030   53.4940   19.4140 C   0  0  2  0  0  0  0  0  0  0  0  0
   -4.4500   55.4410   18.5200 C   0  0  1  0  0  0  0  0  0  0  0  0
   -1.3290   51.4190   27.4700 C   0  0  2  0  0  0  0  0  0  0  0  0
   -5.0190   54.3990   20.7130 C   0  0  1  0  0  0  0  0  0  0  0  0
   -4.6090   54.3590   22.2140 C   0  0  2  0  0  0  0  0  0  0  0  0
   -1.8570   50.0460   27.8620 N   0  0  3  0  0  0  0  0  0  0  0  0
   -3.9320   54.7120   19.7410 N   0  3  1  0  0  0  0  0  0  0  0  0
    4.4020   51.7840   26.5760 O   0  0  0  0  0  0  0  0  0  0  0  0
   -3.7250   53.2370   22.4260 O   0  0  0  0  0  0  0  0  0  0  0  0
   -3.3168   55.3502   20.2039 H   0  0  0  0  0  0  0  0  0  0  0  0
  1 33  1  0  0  0  0
  2 34  1  0  0  0  0
  3 35  1  0  0  0  0
  4 36  1  0  0  0  0
  5 37  1  0  0  0  0
  6 38  1  0  0  0  0
  7 39  1  0  0  0  0
  8 40  1  0  0  0  0
  9 41  1  0  0  0  0
 10 42  1  0  0  0  0
 11 43  1  0  0  0  0
 12 44  1  0  0  0  0
 13 51  1  0  0  0  0
 14 51  1  0  0  0  0
 15 52  1  0  0  0  0
 16 52  1  0  0  0  0
 17 53  1  0  0  0  0
 18 53  1  0  0  0  0
 19 54  1  0  0  0  0
 20 54  1  0  0  0  0
 21 55  1  0  0  0  0
 22 55  1  0  0  0  0
 23 56  1  0  0  0  0
 24 56  1  0  0  0  0
 25 57  1  0  0  0  0
 26 57  1  0  0  0  0
 27 58  1  0  0  0  0
 28 59  1  0  0  0  0
 29 59  1  0  0  0  0
 30 60  1  0  0  0  0
 31 60  1  0  0  0  0
 32 63  1  0  0  0  0
 33 34  2  0  0  0  0
 33 35  1  0  0  0  0
 34 39  1  0  0  0  0
 35 40  2  0  0  0  0
 36 41  1  0  0  0  0
 36 45  2  0  0  0  0
 37 42  2  0  0  0  0
 37 45  1  0  0  0  0
 38 43  2  0  0  0  0
 38 46  1  0  0  0  0
 39 48  2  0  0  0  0
 40 48  1  0  0  0  0
 41 49  2  0  0  0  0
 42 49  1  0  0  0  0
 43 50  1  0  0  0  0
 44 47  1  0  0  0  0
 44 50  2  0  0  0  0
 45 58  1  0  0  0  0
 46 47  2  0  0  0  0
 46 58  1  0  0  0  0
 47 51  1  0  0  0  0
 48 61  1  0  0  0  0
 49 64  1  0  0  0  0
 50 63  1  0  0  0  0
 51 55  1  0  0  0  0
 52 53  1  0  0  0  0
 52 54  1  0  0  0  0
 53 56  1  0  0  0  0
 54 57  1  0  0  0  0
 55 61  1  0  0  0  0
 56 62  1  0  0  0  0
 57 62  1  0  0  0  0
 58 61  1  0  0  0  0
 59 60  1  0  0  0  0
 59 62  1  0  0  0  0
 60 64  1  0  0  0  0
 62 65  1  0  0  0  0
M  CHG  1  62   1
M  END
> <scpdb_id>
1uom_1

$$$$
