#    Name: 22070
#    Modification time : Tue Aug  8 22:06:07 2017

@<TRIPOS>MOLECULE
22070
   64     0     6     0     0
SMALL
NO_CHARGES


@<TRIPOS>ATOM
      1 N          17.2430   65.8220   18.1190 N.am      1 SEL1        0.0000 
      2 N          18.2290   64.1480   19.2700 N.am      1 SEL1        0.0000 
      3 CA         18.6040   64.4830   16.9580 C.3       2 GLL5        0.0000 
      4 CA         17.9590   63.2230   16.3690 C.3       2 GLL5        0.0000 
      5 CA         17.3520   68.4140    8.3250 C.3       2 GLL5        0.0000 
      6 CA         16.8690   67.2760    9.0600 C.3       2 GLL5        0.0000 
      7 CA         18.0800   71.4570    5.0430 C.3       2 GLL5        0.0000 
      8 CA         18.2230   71.3650    8.0160 C.3       2 GLL5        0.0000 
      9 CA         15.9220   71.8190    7.0520 C.3       2 GLL5        0.0000 
     10 CA         16.9860   72.5250    4.8580 C.3       2 GLL5        0.0000 
     11 CA         20.7640   65.6000   17.5860 C.3       2 GLL5        0.0000 
     12 CA         16.7510   63.8600   14.1530 C.3       2 GLL5        0.0000 
     13 CA         18.9890   62.8410   12.6480 C.3       2 GLL5        0.0000 
     14 CA         15.5150   67.2340    9.5280 C.3       2 GLL5        0.0000 
     15 CA         17.5100   70.2590    5.8500 C.3       2 GLL5        0.0000 
     16 CA         19.2670   72.0690    5.8210 C.3       2 GLL5        0.0000 
     17 CA         17.6820   73.6350    7.0340 C.3       2 GLL5        0.0000 
     18 CA         17.8630   63.3930   11.9430 C.3       2 GLL5        0.0000 
     19 N          15.1120   64.5900   17.5880 N.am      3 SEP1        0.0000 
     20 N          19.6990   63.7290   21.7610 N.am      3 SEP1        0.0000 
     21 CA         14.5150   65.5280   18.4670 C.3       4 GLP5        0.0000 
     22 CA         18.6290   59.3510   16.9540 C.3       4 GLP5        0.0000 
     23 CA         21.5310   68.5860    8.9710 C.3       4 GLP5        0.0000 
     24 CA         19.4410   67.3650    4.9910 C.3       4 GLP5        0.0000 
     25 CA         19.1050   66.5280   12.2760 C.3       4 GLP5        0.0000 
     26 CA         18.3870   68.8400    1.5140 C.3       4 GLP5        0.0000 
     27 CA         22.2290   69.9210    9.0000 C.3       4 GLP5        0.0000 
     28 CA         13.0060   71.1750    3.8970 C.3       4 GLP5        0.0000 
     29 CA         17.7580   75.6660    1.8610 C.3       4 GLP5        0.0000 
     30 CA         18.5250   66.9550   13.9180 C.3       4 GLP5        0.0000 
     31 CA         23.4060   67.3820   16.5700 C.3       4 GLP5        0.0000 
     32 CA         17.2500   59.1500   12.8060 C.3       4 GLP5        0.0000 
     33 CA         22.0640   62.4400   11.8160 C.3       4 GLP5        0.0000 
     34 CA         14.7130   65.8050    6.1280 C.3       4 GLP5        0.0000 
     35 CA         15.9480   64.9720    6.4270 C.3       4 GLP5        0.0000 
     36 CA         15.8730   67.3750    4.4900 C.3       4 GLP5        0.0000 
     37 CA         20.7260   71.0660    2.6220 C.3       4 GLP5        0.0000 
     38 CA         22.5270   70.4050    7.5820 C.3       4 GLP5        0.0000 
     39 CA         20.6130   75.8980    8.7180 C.3       4 GLP5        0.0000 
     40 N          16.1775   65.2060   17.8535 N.am      5 SEC1        0.0000 
     41 N          18.9640   63.9385   20.5155 N.am      5 SEC1        0.0000 
     42 CA         16.5595   65.0055   17.7125 C.3       6 GLC5        0.0000 
     43 CA         18.2940   61.2870   16.6615 C.3       6 GLC5        0.0000 
     44 CA         19.4415   68.5000    8.6480 C.3       6 GLC5        0.0000 
     45 CA         18.3965   67.8895    6.6580 C.3       6 GLC5        0.0000 
     46 CA         17.9870   66.9020   10.6680 C.3       6 GLC5        0.0000 
     47 CA         18.2335   70.1485    3.2785 C.3       6 GLC5        0.0000 
     48 CA         20.2260   70.6430    8.5080 C.3       6 GLC5        0.0000 
     49 CA         14.4640   71.4970    5.4745 C.3       6 GLC5        0.0000 
     50 CA         17.3720   74.0955    3.3595 C.3       6 GLC5        0.0000 
     51 CA         14.9960   71.8500    4.3775 C.3       6 GLC5        0.0000 
     52 CA         18.9447   65.6833   15.4567 C.3       6 GLC5        0.0000 
     53 CA         21.9252   66.1760   16.9398 C.3       6 GLC5        0.0000 
     54 CA         17.9277   65.2657   14.2110 C.3       6 GLC5        0.0000 
     55 CA         17.9868   61.0510   12.9989 C.3       6 GLC5        0.0000 
     56 CA         20.3937   62.6960   12.5039 C.3       6 GLC5        0.0000 
     57 CA         14.9039   67.2231    7.5416 C.3       6 GLC5        0.0000 
     58 CA         16.5292   66.4085    7.5597 C.3       6 GLC5        0.0000 
     59 CA         16.5020   68.7854    5.6190 C.3       6 GLC5        0.0000 
     60 CA         18.6180   69.1115    5.2188 C.3       6 GLC5        0.0000 
     61 CA         19.6997   71.4145    4.0270 C.3       6 GLC5        0.0000 
     62 CA         20.7780   71.3615    7.0500 C.3       6 GLC5        0.0000 
     63 CA         19.4247   74.4995    7.9212 C.3       6 GLC5        0.0000 
     64 CA         18.8401   64.7788   12.6002 C.3       6 GLC5        0.0000 
@<TRIPOS>BOND
@<TRIPOS>SUBSTRUCTURE
     1 SEL1        1 GROUP        1 Z    SEL  0     ROOT SEL Z 0
     2 GLL5        3 GROUP        1 Z    GLL  0     **** GLL Z 4
     3 SEP1       19 GROUP        1 Z    SEP  0     **** SEP Z 7
     4 GLP5       21 GROUP        1 Z    GLP  0     **** GLP Z 11
     5 SEC1       40 GROUP        1 Z    SEC  0     **** SEC Z 14
     6 GLC5       42 GROUP        1 Z    GLC  0     **** GLC Z 18
@<TRIPOS>SET

