2zno_S44_1_ligand
  -OEChem-08111718373D

 67 71  0     1  0  0  0  0  0999 V2000
   19.7663   62.4871   12.1278 H   0  0  0  0  0  0  0  0  0  0  0  0
   13.6911   68.3192    9.5856 H   0  0  0  0  0  0  0  0  0  0  0  0
   17.4824   66.5084    9.2459 H   0  0  0  0  0  0  0  0  0  0  0  0
   14.4973   70.2596    8.3340 H   0  0  0  0  0  0  0  0  0  0  0  0
   18.2998   68.4301    8.0064 H   0  0  0  0  0  0  0  0  0  0  0  0
   19.8148   62.3981   14.5556 H   0  0  0  0  0  0  0  0  0  0  0  0
   17.8602   63.4203   10.9434 H   0  0  0  0  0  0  0  0  0  0  0  0
   15.9728   64.2132   14.6723 H   0  0  0  0  0  0  0  0  0  0  0  0
   19.6396   72.8395    5.3038 H   0  0  0  0  0  0  0  0  0  0  0  0
   19.9764   71.3747    5.9422 H   0  0  0  0  0  0  0  0  0  0  0  0
   18.0492   74.4144    6.5263 H   0  0  0  0  0  0  0  0  0  0  0  0
   17.3645   73.9415    7.9314 H   0  0  0  0  0  0  0  0  0  0  0  0
   16.2163   72.1294    4.3570 H   0  0  0  0  0  0  0  0  0  0  0  0
   17.3582   73.2967    4.3422 H   0  0  0  0  0  0  0  0  0  0  0  0
   18.9409   70.6793    8.1358 H   0  0  0  0  0  0  0  0  0  0  0  0
   17.9125   71.6825    8.9120 H   0  0  0  0  0  0  0  0  0  0  0  0
   16.7402   69.8623    5.3499 H   0  0  0  0  0  0  0  0  0  0  0  0
   18.2250   69.5691    5.9633 H   0  0  0  0  0  0  0  0  0  0  0  0
   15.6077   72.1389    7.9458 H   0  0  0  0  0  0  0  0  0  0  0  0
   15.1525   71.4248    6.5496 H   0  0  0  0  0  0  0  0  0  0  0  0
   19.5629   72.9655    7.7104 H   0  0  0  0  0  0  0  0  0  0  0  0
   18.3936   71.1396    4.1480 H   0  0  0  0  0  0  0  0  0  0  0  0
   15.7854   73.7107    6.1269 H   0  0  0  0  0  0  0  0  0  0  0  0
   21.7562   65.4812   17.6248 H   0  0  0  0  0  0  0  0  0  0  0  0
   20.5440   66.3737   16.9919 H   0  0  0  0  0  0  0  0  0  0  0  0
   20.4131   65.7756   18.5058 H   0  0  0  0  0  0  0  0  0  0  0  0
   17.0275   63.1369   16.7225 H   0  0  0  0  0  0  0  0  0  0  0  0
   18.4943   62.4237   16.6420 H   0  0  0  0  0  0  0  0  0  0  0  0
   14.8951   64.7334   12.6086 H   0  0  0  0  0  0  0  0  0  0  0  0
   15.2308   63.7555   11.3446 H   0  0  0  0  0  0  0  0  0  0  0  0
   20.4827   64.1678   16.1152 H   0  0  0  0  0  0  0  0  0  0  0  0
   20.3519   63.5698   17.6291 H   0  0  0  0  0  0  0  0  0  0  0  0
   18.3935   65.2515   16.3537 H   0  0  0  0  0  0  0  0  0  0  0  0
   16.8764   66.0510   11.2597 H   0  0  0  0  0  0  0  0  0  0  0  0
   18.9890   62.8410   12.6480 C   0  0  0  0  0  0  0  0  0  0  0  0
   14.6360   68.3430    9.2590 C   0  0  0  0  0  0  0  0  0  0  0  0
   16.8690   67.2760    9.0600 C   0  0  0  0  0  0  0  0  0  0  0  0
   15.1140   69.4940    8.5170 C   0  0  0  0  0  0  0  0  0  0  0  0
   17.3520   68.4140    8.3250 C   0  0  0  0  0  0  0  0  0  0  0  0
   19.0210   62.7870   14.0880 C   0  0  0  0  0  0  0  0  0  0  0  0
   17.8630   63.3930   11.9430 C   0  0  0  0  0  0  0  0  0  0  0  0
   16.7510   63.8600   14.1530 C   0  0  0  0  0  0  0  0  0  0  0  0
   15.5150   67.2340    9.5280 C   0  0  0  0  0  0  0  0  0  0  0  0
   16.4810   69.5390    8.0400 C   0  0  0  0  0  0  0  0  0  0  0  0
   17.9100   63.2930   14.8550 C   0  0  0  0  0  0  0  0  0  0  0  0
   16.7400   63.9060   12.6840 C   0  0  0  0  0  0  0  0  0  0  0  0
   15.0570   66.1410   10.2240 C   0  0  0  0  0  0  0  0  0  0  0  0
   18.0520   64.7490   18.2020 C   0  0  0  0  0  0  0  0  0  0  0  0
   19.2670   72.0690    5.8210 C   0  0  1  0  0  0  0  0  0  0  0  0
   17.6820   73.6350    7.0340 C   0  0  2  0  0  0  0  0  0  0  0  0
   16.9860   72.5250    4.8580 C   0  0  2  0  0  0  0  0  0  0  0  0
   18.2230   71.3650    8.0160 C   0  0  1  0  0  0  0  0  0  0  0  0
   17.5100   70.2590    5.8500 C   0  0  1  0  0  0  0  0  0  0  0  0
   15.9220   71.8190    7.0520 C   0  0  1  0  0  0  0  0  0  0  0  0
   18.7910   72.5670    7.2150 C   0  0  1  0  0  0  0  0  0  0  0  0
   18.0800   71.4570    5.0430 C   0  0  2  0  0  0  0  0  0  0  0  0
   16.4980   73.0200    6.2500 C   0  0  1  0  0  0  0  0  0  0  0  0
   17.0230   70.7260    7.2520 C   0  0  1  0  0  0  0  0  0  0  0  0
   20.7640   65.6000   17.5860 C   0  0  0  0  0  0  0  0  0  0  0  0
   17.9590   63.2230   16.3690 C   0  0  1  0  0  0  0  0  0  0  0  0
   15.5980   64.4600   11.9520 C   0  0  2  0  0  0  0  0  0  0  0  0
   20.1250   64.3400   17.0330 C   0  0  1  0  0  0  0  0  0  0  0  0
   18.6040   64.4830   16.9580 C   0  0  2  0  0  0  0  0  0  0  0  0
   15.9770   65.6280   11.1490 N   0  0  0  0  0  0  0  0  0  0  0  0
   18.2290   64.1480   19.2700 O   0  5  0  0  0  0  0  0  0  0  0  0
   13.9250   65.6630   10.0310 O   0  0  0  0  0  0  0  0  0  0  0  0
   17.2430   65.8220   18.1190 O   0  0  0  0  0  0  0  0  0  0  0  0
  1 35  1  0  0  0  0
  2 36  1  0  0  0  0
  3 37  1  0  0  0  0
  4 38  1  0  0  0  0
  5 39  1  0  0  0  0
  6 40  1  0  0  0  0
  7 41  1  0  0  0  0
  8 42  1  0  0  0  0
  9 49  1  0  0  0  0
 10 49  1  0  0  0  0
 11 50  1  0  0  0  0
 12 50  1  0  0  0  0
 13 51  1  0  0  0  0
 14 51  1  0  0  0  0
 15 52  1  0  0  0  0
 16 52  1  0  0  0  0
 17 53  1  0  0  0  0
 18 53  1  0  0  0  0
 19 54  1  0  0  0  0
 20 54  1  0  0  0  0
 21 55  1  0  0  0  0
 22 56  1  0  0  0  0
 23 57  1  0  0  0  0
 24 59  1  0  0  0  0
 25 59  1  0  0  0  0
 26 59  1  0  0  0  0
 27 60  1  0  0  0  0
 28 60  1  0  0  0  0
 29 61  1  0  0  0  0
 30 61  1  0  0  0  0
 31 62  1  0  0  0  0
 32 62  1  0  0  0  0
 33 63  1  0  0  0  0
 34 64  1  0  0  0  0
 35 40  2  0  0  0  0
 35 41  1  0  0  0  0
 36 38  1  0  0  0  0
 36 43  2  0  0  0  0
 37 39  2  0  0  0  0
 37 43  1  0  0  0  0
 38 44  2  0  0  0  0
 39 44  1  0  0  0  0
 40 45  1  0  0  0  0
 41 46  2  0  0  0  0
 42 45  2  0  0  0  0
 42 46  1  0  0  0  0
 43 47  1  0  0  0  0
 44 58  1  0  0  0  0
 45 60  1  0  0  0  0
 46 61  1  0  0  0  0
 47 64  1  0  0  0  0
 47 66  2  0  0  0  0
 48 63  1  0  0  0  0
 48 65  1  0  0  0  0
 48 67  2  0  0  0  0
 49 55  1  0  0  0  0
 49 56  1  0  0  0  0
 50 55  1  0  0  0  0
 50 57  1  0  0  0  0
 51 56  1  0  0  0  0
 51 57  1  0  0  0  0
 52 55  1  0  0  0  0
 52 58  1  0  0  0  0
 53 56  1  0  0  0  0
 53 58  1  0  0  0  0
 54 57  1  0  0  0  0
 54 58  1  0  0  0  0
 59 62  1  0  0  0  0
 60 63  1  0  0  0  0
 61 64  1  0  0  0  0
 62 63  1  0  0  0  0
M  CHG  1  65  -1
M  END
> <scpdb_id>
2zno_1

$$$$
