#    Name: 23093
#    Modification time : Tue Aug  8 20:39:49 2017

@<TRIPOS>MOLECULE
23093
   68     0    12     0     0
SMALL
NO_CHARGES


@<TRIPOS>ATOM
      1 N          21.3200  -11.6060    2.5960 N.am      1 SEL1        0.0000 
      2 O          27.3970   -3.7510   13.3440 O.2       2 ALL2        0.0000 
      3 NZ         21.3200  -11.6060    2.5960 N.4       3 LYL3        0.0000 
      4 CA         21.8420   -9.9470    4.7820 C.3       4 GLL5        0.0000 
      5 CA         20.1590  -10.8810    9.7720 C.3       4 GLL5        0.0000 
      6 CA         21.6100   -9.0680    8.6850 C.3       4 GLL5        0.0000 
      7 CA         22.0070   -7.5610    8.6590 C.3       4 GLL5        0.0000 
      8 CA         22.4590   -7.0870   10.0610 C.3       4 GLL5        0.0000 
      9 CA         20.0080   -8.9940   12.3020 C.3       4 GLL5        0.0000 
     10 CA         20.5310   -7.9400   13.3230 C.3       4 GLL5        0.0000 
     11 CA         20.1310   -6.4030   10.8190 C.3       4 GLL5        0.0000 
     12 CA         19.8870   -8.6300    6.7660 C.3       4 GLL5        0.0000 
     13 CA         22.2900   -9.4740    6.1950 C.3       4 GLL5        0.0000 
     14 CA         24.6070   -6.1380   13.4260 C.3       4 GLL5        0.0000 
     15 CA         26.1230   -4.2250   13.2390 C.3       4 GLL5        0.0000 
     16 CA         25.0510   -3.3700   12.8910 C.3       4 GLL5        0.0000 
     17 N          19.5870  -12.4040    0.0690 N.am      5 SEP1        0.0000 
     18 N          18.6670  -10.9050    1.5630 N.am      5 SEP1        0.0000 
     19 O          29.2290   -5.5010   13.5280 O.2       6 ALP2        0.0000 
     20 NZ         18.5570  -11.6660    0.4760 N.4       7 LYP3        0.0000 
     21 CA         18.0410   -9.3830    3.3960 C.3       8 GLP5        0.0000 
     22 CA         23.9300  -12.2690    8.0530 C.3       8 GLP5        0.0000 
     23 CA         17.4320  -14.0670   10.9900 C.3       8 GLP5        0.0000 
     24 CA         21.5490  -14.9310    9.3410 C.3       8 GLP5        0.0000 
     25 CA         19.9470  -12.9600   13.4490 C.3       8 GLP5        0.0000 
     26 CA         20.3620   -4.3770    6.7850 C.3       8 GLP5        0.0000 
     27 CA         21.4170   -3.5510    7.9780 C.3       8 GLP5        0.0000 
     28 CA         16.6440   -6.5060   13.1050 C.3       8 GLP5        0.0000 
     29 CA         17.3920   -5.3640   13.3660 C.3       8 GLP5        0.0000 
     30 CA         20.1090   -5.0720   16.6180 C.3       8 GLP5        0.0000 
     31 CA         19.0090   -4.4970    7.4090 C.3       8 GLP5        0.0000 
     32 CA         24.1120  -13.3210    5.2690 C.3       8 GLP5        0.0000 
     33 CA         23.1530   -6.1610    3.7200 C.3       8 GLP5        0.0000 
     34 CA         16.9650  -10.3380    8.7490 C.3       8 GLP5        0.0000 
     35 CA         25.3390   -4.9430    8.9640 C.3       8 GLP5        0.0000 
     36 CA         17.1230   -9.5860   15.5880 C.3       8 GLP5        0.0000 
     37 CA         26.0420   -9.3520   13.2210 C.3       8 GLP5        0.0000 
     38 CA         29.8130   -5.7000   12.2330 C.3       8 GLP5        0.0000 
     39 N          20.4535  -12.0050    1.3325 N.am      9 SEC1        0.0000 
     40 N          19.9935  -11.2555    2.0795 N.am      9 SEC1        0.0000 
     41 O          28.3130   -4.6260   13.4360 O.2      10 ALC2        0.0000 
     42 NZ         19.9385  -11.6360    1.5360 N.4      11 LYC3        0.0000 
     43 CA         19.9415   -9.6650    4.0890 C.3      12 GLC5        0.0000 
     44 CA         22.0445  -11.5750    8.9125 C.3      12 GLC5        0.0000 
     45 CA         18.7955  -12.4740   10.3810 C.3      12 GLC5        0.0000 
     46 CA         20.8540  -12.9060    9.5565 C.3      12 GLC5        0.0000 
     47 CA         20.0530  -11.9205   11.6105 C.3      12 GLC5        0.0000 
     48 CA         22.7700  -10.6685    8.3690 C.3      12 GLC5        0.0000 
     49 CA         21.1845   -5.9690    7.7220 C.3      12 GLC5        0.0000 
     50 CA         21.9380   -5.3190    9.0195 C.3      12 GLC5        0.0000 
     51 CA         18.3260   -7.7500   12.7035 C.3      12 GLC5        0.0000 
     52 CA         19.9775  -10.9770   12.8755 C.3      12 GLC5        0.0000 
     53 CA         18.9615   -6.6520   13.3445 C.3      12 GLC5        0.0000 
     54 CA         20.3200   -6.5060   14.9705 C.3      12 GLC5        0.0000 
     55 CA         19.5700   -5.4500    9.1140 C.3      12 GLC5        0.0000 
     56 CA         18.7615   -5.8835   12.0925 C.3      12 GLC5        0.0000 
     57 CA         19.4480   -6.5635    7.0875 C.3      12 GLC5        0.0000 
     58 CA         18.9640   -9.0065    5.0810 C.3      12 GLC5        0.0000 
     59 CA         23.0890  -11.5158    5.3788 C.3      12 GLC5        0.0000 
     60 CA         22.8122  -10.8885    7.3868 C.3      12 GLC5        0.0000 
     61 CA         22.6095   -7.9357    4.6043 C.3      12 GLC5        0.0000 
     62 CA         18.6502  -10.2250    9.2583 C.3      12 GLC5        0.0000 
     63 CA         18.7290   -9.7120    7.8775 C.3      12 GLC5        0.0000 
     64 CA         23.7860   -6.1335    9.1620 C.3      12 GLC5        0.0000 
     65 CA         18.6962   -9.0265   14.2003 C.3      12 GLC5        0.0000 
     66 CA         25.6505   -7.6075   13.3435 C.3      12 GLC5        0.0000 
     67 CA         27.9150   -5.3033   12.8027 C.3      12 GLC5        0.0000 
     68 CA         25.0020   -4.3994   10.9485 C.3      12 GLC5        0.0000 
@<TRIPOS>BOND
@<TRIPOS>SUBSTRUCTURE
     1 SEL1        1 GROUP        1 Z    SEL  0     ROOT SEL Z 0
     2 ALL2        2 GROUP        1 Z    ALL  0     **** ALL Z 1
     3 LYL3        3 GROUP        1 Z    LYL  0     **** LYL Z 2
     4 GLL5        4 GROUP        1 Z    GLL  0     **** GLL Z 4
     5 SEP1       17 GROUP        1 Z    SEP  0     **** SEP Z 7
     6 ALP2       19 GROUP        1 Z    ALP  0     **** ALP Z 8
     7 LYP3       20 GROUP        1 Z    LYP  0     **** LYP Z 9
     8 GLP5       21 GROUP        1 Z    GLP  0     **** GLP Z 11
     9 SEC1       39 GROUP        1 Z    SEC  0     **** SEC Z 14
    10 ALC2       41 GROUP        1 Z    ALC  0     **** ALC Z 15
    11 LYC3       42 GROUP        1 Z    LYC  0     **** LYC Z 16
    12 GLC5       43 GROUP        1 Z    GLC  0     **** GLC Z 18
@<TRIPOS>SET

