3h0a_9RA_1_ligand
  -OEChem-08111718373D

 53 55  0     1  0  0  0  0  0999 V2000
   60.3324    5.7578   37.2687 H   0  0  0  0  0  0  0  0  0  0  0  0
   61.4417    9.7194   37.7844 H   0  0  0  0  0  0  0  0  0  0  0  0
   58.6757    6.0210   38.9819 H   0  0  0  0  0  0  0  0  0  0  0  0
   59.7931    9.9880   39.4890 H   0  0  0  0  0  0  0  0  0  0  0  0
   61.5852    9.9513   35.1435 H   0  0  0  0  0  0  0  0  0  0  0  0
   66.3164    9.4289   36.0970 H   0  0  0  0  0  0  0  0  0  0  0  0
   62.7452    6.2954   34.9155 H   0  0  0  0  0  0  0  0  0  0  0  0
   61.4187    5.7088   35.8621 H   0  0  0  0  0  0  0  0  0  0  0  0
   63.6633   14.0033   33.9308 H   0  0  0  0  0  0  0  0  0  0  0  0
   64.4226   12.8299   33.0863 H   0  0  0  0  0  0  0  0  0  0  0  0
   64.8860   13.3387   35.8663 H   0  0  0  0  0  0  0  0  0  0  0  0
   65.8623   13.8486   34.6607 H   0  0  0  0  0  0  0  0  0  0  0  0
   65.9273    7.3288   37.0752 H   0  0  0  0  0  0  0  0  0  0  0  0
   64.4939    7.1952   37.8460 H   0  0  0  0  0  0  0  0  0  0  0  0
   64.7088    6.4826   36.3925 H   0  0  0  0  0  0  0  0  0  0  0  0
   61.6286   13.6732   34.8279 H   0  0  0  0  0  0  0  0  0  0  0  0
   61.2094   12.2354   35.4790 H   0  0  0  0  0  0  0  0  0  0  0  0
   62.4640   13.0775   36.0983 H   0  0  0  0  0  0  0  0  0  0  0  0
   61.8937   12.6173   32.5519 H   0  0  0  0  0  0  0  0  0  0  0  0
   62.8694   11.3200   32.3734 H   0  0  0  0  0  0  0  0  0  0  0  0
   61.4523   11.1722   33.1713 H   0  0  0  0  0  0  0  0  0  0  0  0
   66.7385   10.6153   33.3984 H   0  0  0  0  0  0  0  0  0  0  0  0
   65.4964   11.5309   32.8641 H   0  0  0  0  0  0  0  0  0  0  0  0
   66.9455   12.2190   33.1699 H   0  0  0  0  0  0  0  0  0  0  0  0
   67.4878   10.8100   35.7985 H   0  0  0  0  0  0  0  0  0  0  0  0
   67.7399   12.4075   35.5726 H   0  0  0  0  0  0  0  0  0  0  0  0
   66.7632   11.8974   36.7778 H   0  0  0  0  0  0  0  0  0  0  0  0
   60.2220    6.6360   37.7340 C   0  0  0  0  0  0  0  0  0  0  0  0
   60.8620    8.9460   38.0410 C   0  0  0  0  0  0  0  0  0  0  0  0
   59.2580    6.7940   38.7300 C   0  0  0  0  0  0  0  0  0  0  0  0
   59.9040    9.1060   39.0310 C   0  0  0  0  0  0  0  0  0  0  0  0
   62.5600    9.8480   35.3410 C   0  0  0  0  0  0  0  0  0  0  0  0
   65.3410    9.5390   35.9060 C   0  0  0  0  0  0  0  0  0  0  0  0
   61.0260    7.7180   37.3990 C   0  0  0  0  0  0  0  0  0  0  0  0
   59.0970    8.0240   39.3810 C   0  0  0  0  0  0  0  0  0  0  0  0
   63.0070    8.6860   35.9780 C   0  0  0  0  0  0  0  0  0  0  0  0
   63.4400   10.8670   34.9740 C   0  0  0  0  0  0  0  0  0  0  0  0
   64.8890   10.7000   35.2810 C   0  0  0  0  0  0  0  0  0  0  0  0
   64.4510    8.5300   36.2680 C   0  0  0  0  0  0  0  0  0  0  0  0
   62.0740    6.4320   35.6440 C   0  0  0  0  0  0  0  0  0  0  0  0
   62.0530    7.5640   36.3160 C   0  0  0  0  0  0  0  0  0  0  0  0
   58.0500    8.2040   40.4470 C   0  0  0  0  0  0  0  0  0  0  0  0
   64.0560   13.0850   33.9810 C   0  0  1  0  0  0  0  0  0  0  0  0
   65.2130   13.1420   34.9420 C   0  0  2  0  0  0  0  0  0  0  0  0
   62.9280   12.1270   34.2980 C   0  0  2  0  0  0  0  0  0  0  0  0
   65.8730   11.7720   34.8970 C   0  0  2  0  0  0  0  0  0  0  0  0
   64.9360    7.2790   36.9530 C   0  0  0  0  0  0  0  0  0  0  0  0
   61.9750   12.8400   35.2590 C   0  0  0  0  0  0  0  0  0  0  0  0
   62.2250   11.7790   32.9850 C   0  0  0  0  0  0  0  0  0  0  0  0
   66.3000   11.5120   33.4590 C   0  0  0  0  0  0  0  0  0  0  0  0
   67.0690   11.7170   35.8430 C   0  0  0  0  0  0  0  0  0  0  0  0
   58.1550    9.1540   41.2350 O   0  5  0  0  0  0  0  0  0  0  0  0
   57.0810    7.4250   40.5310 O   0  0  0  0  0  0  0  0  0  0  0  0
  1 28  1  0  0  0  0
  2 29  1  0  0  0  0
  3 30  1  0  0  0  0
  4 31  1  0  0  0  0
  5 32  1  0  0  0  0
  6 33  1  0  0  0  0
  7 40  1  0  0  0  0
  8 40  1  0  0  0  0
  9 43  1  0  0  0  0
 10 43  1  0  0  0  0
 11 44  1  0  0  0  0
 12 44  1  0  0  0  0
 13 47  1  0  0  0  0
 14 47  1  0  0  0  0
 15 47  1  0  0  0  0
 16 48  1  0  0  0  0
 17 48  1  0  0  0  0
 18 48  1  0  0  0  0
 19 49  1  0  0  0  0
 20 49  1  0  0  0  0
 21 49  1  0  0  0  0
 22 50  1  0  0  0  0
 23 50  1  0  0  0  0
 24 50  1  0  0  0  0
 25 51  1  0  0  0  0
 26 51  1  0  0  0  0
 27 51  1  0  0  0  0
 28 30  2  0  0  0  0
 28 34  1  0  0  0  0
 29 31  1  0  0  0  0
 29 34  2  0  0  0  0
 30 35  1  0  0  0  0
 31 35  2  0  0  0  0
 32 36  1  0  0  0  0
 32 37  2  0  0  0  0
 33 38  2  0  0  0  0
 33 39  1  0  0  0  0
 34 41  1  0  0  0  0
 35 42  1  0  0  0  0
 36 39  2  0  0  0  0
 36 41  1  0  0  0  0
 37 38  1  0  0  0  0
 37 45  1  0  0  0  0
 38 46  1  0  0  0  0
 39 47  1  0  0  0  0
 40 41  2  0  0  0  0
 42 52  1  0  0  0  0
 42 53  2  0  0  0  0
 43 44  1  0  0  0  0
 43 45  1  0  0  0  0
 44 46  1  0  0  0  0
 45 48  1  0  0  0  0
 45 49  1  0  0  0  0
 46 50  1  0  0  0  0
 46 51  1  0  0  0  0
M  CHG  1  52  -1
M  END
> <scpdb_id>
3h0a_1

$$$$
