#    Name: 15712
#    Modification time : Tue Aug  8 21:31:09 2017

@<TRIPOS>MOLECULE
15712
   75     0     9     0     0
SMALL
NO_CHARGES


@<TRIPOS>ATOM
      1 N         -28.5430   21.2040    4.3200 N.am      1 SEL1        0.0000 
      2 N         -27.4640   23.0230    5.9800 N.am      1 SEL1        0.0000 
      3 N         -29.9440   30.4590    9.0410 N.am      1 SEL1        0.0000 
      4 N         -32.8320   34.2760    2.5250 N.am      1 SEL1        0.0000 
      5 N         -30.0610   34.1640    3.5010 N.am      1 SEL1        0.0000 
      6 N         -29.6580   22.4010    2.3400 N.am      1 SEL1        0.0000 
      7 N         -27.7770   24.0190    2.3160 N.am      1 SEL1        0.0000 
      8 O         -27.6620   29.9510    8.9340 O.2       2 ALL2        0.0000 
      9 O         -33.1280   32.0750    2.9790 O.2       2 ALL2        0.0000 
     10 O         -26.9330   29.3230    4.2960 O.2       2 ALL2        0.0000 
     11 CA        -31.6150   23.6180    7.0560 C.3       3 GLL5        0.0000 
     12 CA        -31.9560   25.8310    7.8330 C.3       3 GLL5        0.0000 
     13 CA        -25.5550   36.0060    4.4510 C.3       3 GLL5        0.0000 
     14 CA        -24.6380   33.2040    5.3130 C.3       3 GLL5        0.0000 
     15 CA        -29.1720   30.1050    4.3450 C.3       3 GLL5        0.0000 
     16 CA        -28.2340   29.0580    4.8290 C.3       3 GLL5        0.0000 
     17 CA        -29.9730   26.0390    3.2230 C.3       3 GLL5        0.0000 
     18 CA        -30.2470   22.9830    7.2060 C.3       3 GLL5        0.0000 
     19 CA        -31.7940   24.5420    5.8310 C.3       3 GLL5        0.0000 
     20 CA        -32.4770   25.7710    6.4110 C.3       3 GLL5        0.0000 
     21 CA        -26.4800   34.7850    4.4170 C.3       3 GLL5        0.0000 
     22 CA        -26.0420   33.4890    4.8150 C.3       3 GLL5        0.0000 
     23 CA        -26.9720   32.3890    4.7420 C.3       3 GLL5        0.0000 
     24 N         -28.4100   18.7990    2.9030 N.am      4 SEP1        0.0000 
     25 N         -26.5710   21.3220    7.9910 N.am      4 SEP1        0.0000 
     26 N         -29.2630   33.0390    7.9010 N.am      4 SEP1        0.0000 
     27 N         -35.8450   34.0110    2.1610 N.am      4 SEP1        0.0000 
     28 N         -30.3197   36.4597    2.0863 N.am      4 SEP1        0.0000 
     29 N         -32.7730   21.2760    1.4890 N.am      4 SEP1        0.0000 
     30 N         -26.2870   21.1490    1.5230 N.am      4 SEP1        0.0000 
     31 O         -27.3210   33.0630    9.0380 O.2       5 ALP2        0.0000 
     32 O         -35.0510   31.1070    1.2790 O.2       5 ALP2        0.0000 
     33 O         -25.1290   29.1860    6.1890 O.2       5 ALP2        0.0000 
     34 CA        -34.8740   22.7140    9.1950 C.3       6 GLP5        0.0000 
     35 CA        -34.7610   27.7910    9.9730 C.3       6 GLP5        0.0000 
     36 CA        -21.8520   37.8360    3.8290 C.3       6 GLP5        0.0000 
     37 CA        -26.2760   35.3010    0.2660 C.3       6 GLP5        0.0000 
     38 CA        -26.1310   39.1100    2.1490 C.3       6 GLP5        0.0000 
     39 CA        -21.4530   31.9750    6.6360 C.3       6 GLP5        0.0000 
     40 CA        -26.4970   31.4930    1.4530 C.3       6 GLP5        0.0000 
     41 CA        -24.3930   27.4120    4.7610 C.3       6 GLP5        0.0000 
     42 CA        -29.1580   25.6410   -1.1020 C.3       6 GLP5        0.0000 
     43 CA        -29.0500   23.0320   10.4510 C.3       6 GLP5        0.0000 
     44 CA        -32.9040   26.1230    1.9850 C.3       6 GLP5        0.0000 
     45 CA        -36.1430   23.4330    5.5690 C.3       6 GLP5        0.0000 
     46 CA        -27.7250   34.8910    7.5490 C.3       6 GLP5        0.0000 
     47 CA        -24.2370   32.4480    2.0420 C.3       6 GLP5        0.0000 
     48 N         -28.4765   20.0015    3.6115 N.am      7 SEC1        0.0000 
     49 N         -27.0175   22.1725    6.9855 N.am      7 SEC1        0.0000 
     50 N         -29.6035   31.7490    8.4710 N.am      7 SEC1        0.0000 
     51 N         -34.3385   34.1435    2.3430 N.am      7 SEC1        0.0000 
     52 N         -30.1904   35.3118    2.7936 N.am      7 SEC1        0.0000 
     53 N         -31.2155   21.8385    1.9145 N.am      7 SEC1        0.0000 
     54 N         -27.0320   22.5840    1.9195 N.am      7 SEC1        0.0000 
     55 O         -27.4915   31.5070    8.9860 O.2       8 ALC2        0.0000 
     56 O         -34.0895   31.5910    2.1290 O.2       8 ALC2        0.0000 
     57 O         -26.0310   29.2545    5.2425 O.2       8 ALC2        0.0000 
     58 CA        -33.2445   23.1660    8.1255 C.3       9 GLC5        0.0000 
     59 CA        -33.4150   24.2725    8.5140 C.3       9 GLC5        0.0000 
     60 CA        -33.3585   26.8110    8.9030 C.3       9 GLC5        0.0000 
     61 CA        -23.7035   36.9210    4.1400 C.3       9 GLC5        0.0000 
     62 CA        -25.9155   35.6535    2.3585 C.3       9 GLC5        0.0000 
     63 CA        -25.8430   37.5580    3.3000 C.3       9 GLC5        0.0000 
     64 CA        -23.0455   32.5895    5.9745 C.3       9 GLC5        0.0000 
     65 CA        -27.8345   30.7990    2.8990 C.3       9 GLC5        0.0000 
     66 CA        -26.3135   28.2350    4.7950 C.3       9 GLC5        0.0000 
     67 CA        -29.5655   25.8400    1.0605 C.3       9 GLC5        0.0000 
     68 CA        -29.9905   23.1662    8.7910 C.3       9 GLC5        0.0000 
     69 CA        -32.5198   25.6398    4.0530 C.3       9 GLC5        0.0000 
     70 CA        -34.1393   24.2948    5.8450 C.3       9 GLC5        0.0000 
     71 CA        -27.0344   35.1675    5.9385 C.3       9 GLC5        0.0000 
     72 CA        -26.5325   34.1187    6.3065 C.3       9 GLC5        0.0000 
     73 CA        -27.0640   31.9853    2.9865 C.3       9 GLC5        0.0000 
     74 CA        -27.5617   33.8217    6.0436 C.3       9 GLC5        0.0000 
     75 CA        -24.9853   33.4905    3.3706 C.3       9 GLC5        0.0000 
@<TRIPOS>BOND
@<TRIPOS>SUBSTRUCTURE
     1 SEL1        1 GROUP        1 Z    SEL  0     ROOT SEL Z 0
     2 ALL2        8 GROUP        1 Z    ALL  0     **** ALL Z 1
     3 GLL5       11 GROUP        1 Z    GLL  0     **** GLL Z 4
     4 SEP1       24 GROUP        1 Z    SEP  0     **** SEP Z 7
     5 ALP2       31 GROUP        1 Z    ALP  0     **** ALP Z 8
     6 GLP5       34 GROUP        1 Z    GLP  0     **** GLP Z 11
     7 SEC1       48 GROUP        1 Z    SEC  0     **** SEC Z 14
     8 ALC2       55 GROUP        1 Z    ALC  0     **** ALC Z 15
     9 GLC5       58 GROUP        1 Z    GLC  0     **** GLC Z 18
@<TRIPOS>SET

