#    Name: 28316
#    Modification time : Wed Aug  9 00:11:09 2017

@<TRIPOS>MOLECULE
28316
   62     0    15     0     0
SMALL
NO_CHARGES


@<TRIPOS>ATOM
      1 N         122.8550   44.7900   48.1050 N.am      1 SEL1        0.0000 
      2 N         122.4960   44.7510   45.6070 N.am      1 SEL1        0.0000 
      3 N         123.8760   48.9750   45.8260 N.am      1 SEL1        0.0000 
      4 N         122.8910   47.4550   44.1670 N.am      1 SEL1        0.0000 
      5 N         122.8290   46.9990   46.7220 N.am      1 SEL1        0.0000 
      6 N         127.1660   47.0460   44.1120 N.am      1 SEL1        0.0000 
      7 N         125.0530   46.9540   45.4020 N.am      1 SEL1        0.0000 
      8 N         123.9450   45.9550   37.3350 N.am      1 SEL1        0.0000 
      9 N         129.3100   44.3960   38.1360 N.am      1 SEL1        0.0000 
     10 O         123.9450   45.9550   37.3350 O.2       2 ALL2        0.0000 
     11 O         131.4400   44.3340   35.7340 O.2       2 ALL2        0.0000 
     12 NZ        120.7210   45.6450   47.0740 N.4       3 LYL3        0.0000 
     13 NZ        122.8550   44.7900   48.1050 N.4       3 LYL3        0.0000 
     14 NZ        122.4960   44.7510   45.6070 N.4       3 LYL3        0.0000 
     15 NZ        123.8760   48.9750   45.8260 N.4       3 LYL3        0.0000 
     16 CA        125.2820   46.3160   40.4040 C.3       4 GLL5        0.0000 
     17 CA        124.4860   45.2720   39.6670 C.3       4 GLL5        0.0000 
     18 CA        126.1450   46.2180   38.2200 C.3       4 GLL5        0.0000 
     19 Zn        122.8550   44.7900   48.1050 Zn        5 ZIL7        0.0000 
     20 N         122.0300   42.2140   48.2730 N.am      6 SEP1        0.0000 
     21 N         123.2980   41.6570   46.4470 N.am      6 SEP1        0.0000 
     22 N         120.0030   43.3590   45.7350 N.am      6 SEP1        0.0000 
     23 N         126.7750   49.0540   47.5720 N.am      6 SEP1        0.0000 
     24 N         124.2090   50.3680   43.3090 N.am      6 SEP1        0.0000 
     25 N         120.7460   49.0890   47.9270 N.am      6 SEP1        0.0000 
     26 N         128.9810   48.5480   45.8230 N.am      6 SEP1        0.0000 
     27 N         124.5020   47.0310   34.1240 N.am      6 SEP1        0.0000 
     28 N         131.7170   42.2020   37.5330 N.am      6 SEP1        0.0000 
     29 O         121.9460   44.2670   36.3760 O.2       7 ALP2        0.0000 
     30 O         131.7170   42.2020   37.5330 O.2       7 ALP2        0.0000 
     31 O         133.3780   44.5090   33.0620 O.2       7 ALP2        0.0000 
     32 NZ        120.7460   49.0890   47.9270 N.4       8 LYP3        0.0000 
     33 NZ        120.0030   43.3590   45.7350 N.4       8 LYP3        0.0000 
     34 NZ        122.7610   41.3290   47.6150 N.4       8 LYP3        0.0000 
     35 CA        126.5180   50.2730   39.3150 C.3       9 GLP5        0.0000 
     36 CA        120.4320   44.2820   40.8410 C.3       9 GLP5        0.0000 
     37 CA        128.6680   48.9950   37.6870 C.3       9 GLP5        0.0000 
     38 Zn        123.7560   46.4960   49.4590 Zn       10 ZIP7        0.0000 
     39 N         122.4425   43.5020   48.1890 N.am     11 SEC1        0.0000 
     40 N         122.8970   43.2040   46.0270 N.am     11 SEC1        0.0000 
     41 N         121.2495   44.0550   45.6710 N.am     11 SEC1        0.0000 
     42 N         125.3255   49.0145   46.6990 N.am     11 SEC1        0.0000 
     43 N         123.5500   48.9115   43.7380 N.am     11 SEC1        0.0000 
     44 N         121.7875   48.0440   47.3245 N.am     11 SEC1        0.0000 
     45 N         128.0735   47.7970   44.9675 N.am     11 SEC1        0.0000 
     46 N         125.9140   48.0040   46.4870 N.am     11 SEC1        0.0000 
     47 N         124.2235   46.4930   35.7295 N.am     11 SEC1        0.0000 
     48 N         130.5135   43.2990   37.8345 N.am     11 SEC1        0.0000 
     49 O         122.9455   45.1110   36.8555 O.2      12 ALC2        0.0000 
     50 O         131.5785   43.2680   36.6335 O.2      12 ALC2        0.0000 
     51 O         132.4090   44.4215   34.3980 O.2      12 ALC2        0.0000 
     52 NZ        120.7335   47.3670   47.5005 N.4      13 LYC3        0.0000 
     53 NZ        120.3620   44.5020   46.4045 N.4      13 LYC3        0.0000 
     54 NZ        122.8080   43.0595   47.8600 N.4      13 LYC3        0.0000 
     55 NZ        121.4290   44.0745   46.9200 N.4      13 LYC3        0.0000 
     56 NZ        122.6285   43.0400   46.6110 N.4      13 LYC3        0.0000 
     57 NZ        121.2495   44.0550   45.6710 N.4      13 LYC3        0.0000 
     58 NZ        122.3110   49.0320   46.8765 N.4      13 LYC3        0.0000 
     59 CA        125.9000   48.2945   39.8595 C.3      14 GLC5        0.0000 
     60 CA        122.4590   44.7770   40.2540 C.3      14 GLC5        0.0000 
     61 CA        127.4065   47.6065   37.9535 C.3      14 GLC5        0.0000 
     62 Zn        123.3055   45.6430   48.7820 Zn       15 ZIC7        0.0000 
@<TRIPOS>BOND
@<TRIPOS>SUBSTRUCTURE
     1 SEL1        1 GROUP        1 Z    SEL  0     ROOT SEL Z 0
     2 ALL2       10 GROUP        1 Z    ALL  0     **** ALL Z 1
     3 LYL3       12 GROUP        1 Z    LYL  0     **** LYL Z 2
     4 GLL5       16 GROUP        1 Z    GLL  0     **** GLL Z 4
     5 ZIL7       19 GROUP        1 Z    ZIL  0     **** ZIL Z 5
     6 SEP1       20 GROUP        1 Z    SEP  0     **** SEP Z 7
     7 ALP2       29 GROUP        1 Z    ALP  0     **** ALP Z 8
     8 LYP3       32 GROUP        1 Z    LYP  0     **** LYP Z 9
     9 GLP5       35 GROUP        1 Z    GLP  0     **** GLP Z 11
    10 ZIP7       38 GROUP        1 Z    ZIP  0     **** ZIP Z 12
    11 SEC1       39 GROUP        1 Z    SEC  0     **** SEC Z 14
    12 ALC2       49 GROUP        1 Z    ALC  0     **** ALC Z 15
    13 LYC3       52 GROUP        1 Z    LYC  0     **** LYC Z 16
    14 GLC5       59 GROUP        1 Z    GLC  0     **** GLC Z 18
    15 ZIC7       62 GROUP        1 Z    ZIC  0     **** ZIC Z 19
@<TRIPOS>SET

