@<TRIPOS>MOLECULE
3k0f_ATP_4_ligand
   43    45     1     0     0
SMALL
NO_CHARGES


@<TRIPOS>ATOM
     1 PG         122.2080    45.5120    46.9060 P.3          1 ATP903   0.0000
     2 O1G        120.7210    45.6450    47.0740 O.co2        1 ATP903   0.0000
     3 O2G        122.8550    44.7900    48.1050 O.co2        1 ATP903  -1.0000
     4 O3G        122.4960    44.7510    45.6070 O.co2        1 ATP903  -1.0000
     5 PB         123.6060    47.5880    45.4680 P.3          1 ATP903   0.0000
     6 O1B        123.8760    48.9750    45.8260 O.co2        1 ATP903   0.0000
     7 O2B        122.8910    47.4550    44.1670 O.co2        1 ATP903  -1.0000
     8 O3B        122.8290    46.9990    46.7220 O.3          1 ATP903   0.0000
     9 PA         125.9200    46.2580    44.2420 P.3          1 ATP903   0.0000
    10 O1A        127.1660    47.0460    44.1120 O.co2        1 ATP903   0.0000
    11 O2A        126.1860    44.8020    44.6090 O.co2        1 ATP903  -1.0000
    12 O3A        125.0530    46.9540    45.4020 O.3          1 ATP903   0.0000
    13 O5'        125.2000    46.3760    42.8290 O.3          1 ATP903   0.0000
    14 C5'        125.8680    45.7890    41.7020 C.3          1 ATP903   0.0000
    15 C4'        125.2820    46.3160    40.4040 C.3          1 ATP903   0.0000
    16 O4'        126.2720    46.8040    39.5240 O.3          1 ATP903   0.0000
    17 C3'        124.4860    45.2720    39.6670 C.3          1 ATP903   0.0000
    18 O3'        123.1090    45.5500    39.9040 O.3          1 ATP903   0.0000
    19 C2'        124.8850    45.3970    38.2020 C.3          1 ATP903   0.0000
    20 O2'        123.9450    45.9550    37.3350 O.3          1 ATP903   0.0000
    21 C1'        126.1450    46.2180    38.2200 C.3          1 ATP903   0.0000
    22 N9         127.4870    45.5740    37.9230 N.pl3        1 ATP903   0.0000
    23 C8         128.1970    44.7470    38.7660 C.2          1 ATP903   0.0000
    24 N7         129.3100    44.3960    38.1360 N.2          1 ATP903   0.0000
    25 C5         129.3830    44.9520    36.8940 C.ar         1 ATP903   0.0000
    26 C6         130.2810    44.9560    35.7940 C.ar         1 ATP903   0.0000
    27 N6         131.4400    44.3340    35.7340 N.pl3        1 ATP903   0.0000
    28 N1         129.9680    45.6890    34.6470 N.ar         1 ATP903   0.0000
    29 C2         128.8020    46.4150    34.5540 C.ar         1 ATP903   0.0000
    30 N3         127.9080    46.4330    35.6160 N.ar         1 ATP903   0.0000
    31 C4         128.2000    45.7110    36.7610 C.ar         1 ATP903   0.0000
    32 H5'1       125.7569    44.7957    41.7341 H            1 ATP903   0.0000
    33 H5'2       126.8409    46.0170    41.7405 H            1 ATP903   0.0000
    34 H4'        124.6673    47.0724    40.6273 H            1 ATP903   0.0000
    35 H3'        124.7158    44.3607    40.0087 H            1 ATP903   0.0000
    36 H5         122.7672    46.1686    39.1965 H            1 ATP903   0.0000
    37 H2'        125.1146    44.4842    37.8643 H            1 ATP903   0.0000
    38 H7         123.1144    45.3982    37.3407 H            1 ATP903   0.0000
    39 H1'        126.0226    46.9661    37.5678 H            1 ATP903   0.0000
    40 H9         127.9231    44.4633    39.6850 H            1 ATP903   0.0000
    41 H10        132.0009    44.4002    34.9088 H            1 ATP903   0.0000
    42 H11        131.7593    43.7954    36.5137 H            1 ATP903   0.0000
    43 H12        128.5989    46.9297    33.7210 H            1 ATP903   0.0000
@<TRIPOS>BOND
     1    1    2      ar
     2    1    3      ar
     3    1    4      ar
     4    1    8       1
     5    5    6      ar
     6    5    7      ar
     7    5    8       1
     8    5   12       1
     9    9   10      ar
    10    9   11      ar
    11    9   12       1
    12    9   13       1
    13   13   14       1
    14   14   15       1
    15   15   16       1
    16   15   17       1
    17   16   21       1
    18   17   18       1
    19   17   19       1
    20   19   20       1
    21   19   21       1
    22   21   22       1
    23   22   23       1
    24   22   31       1
    25   23   24       2
    26   24   25       1
    27   25   26      ar
    28   25   31      ar
    29   26   27       1
    30   26   28      ar
    31   28   29      ar
    32   29   30      ar
    33   30   31      ar
    34   29   43       1
    35   27   42       1
    36   27   41       1
    37   23   40       1
    38   14   32       1
    39   14   33       1
    40   15   34       1
    41   17   35       1
    42   18   36       1
    43   19   37       1
    44   20   38       1
    45   21   39       1
@<TRIPOS>SUBSTRUCTURE
     1 ATP903      1 GROUP             4 B     ATP     0 **** ATP B 903
