#    Name: 10141
#    Modification time : Tue Aug  8 21:25:54 2017

@<TRIPOS>MOLECULE
10141
   16     0     9     0     0
SMALL
NO_CHARGES


@<TRIPOS>ATOM
      1 N          57.2390    5.9930  -12.1090 N.am      1 SEL1        0.0000 
      2 N          55.7540    3.3850  -12.8660 N.am      1 SEL1        0.0000 
      3 O          58.5790    5.9670  -10.3080 O.2       2 ALL2        0.0000 
      4 CZ         57.8332    5.6190  -11.1418 C.ar      3 PHL6        0.0000 
      5 N          57.1040    6.9540  -14.7110 N.am      4 SEP1        0.0000 
      6 N          55.3770    2.3740  -15.7100 N.am      4 SEP1        0.0000 
      7 N          54.9920    1.0420  -13.8630 N.am      4 SEP1        0.0000 
      8 O          60.6380    6.8700   -8.4030 O.2       5 ALP2        0.0000 
      9 CZ         56.3212    7.2738   -8.2408 C.ar      6 PHP6        0.0000 
     10 CZ         59.7625    3.6232  -13.4275 C.ar      6 PHP6        0.0000 
     11 N          57.1715    6.4735  -13.4100 N.am      7 SEC1        0.0000 
     12 N          55.5655    2.8795  -14.2880 N.am      7 SEC1        0.0000 
     13 N          55.3730    2.2135  -13.3645 N.am      7 SEC1        0.0000 
     14 O          59.6085    6.4185   -9.3555 O.2       8 ALC2        0.0000 
     15 CZ         57.0772    6.4464   -9.6913 C.ar      9 PHC6        0.0000 
     16 CZ         58.7978    4.6211  -12.2846 C.ar      9 PHC6        0.0000 
@<TRIPOS>BOND
@<TRIPOS>SUBSTRUCTURE
     1 SEL1        1 GROUP        1 Z    SEL  0     ROOT SEL Z 0
     2 ALL2        3 GROUP        1 Z    ALL  0     **** ALL Z 1
     3 PHL6        4 GROUP        1 Z    PHL  0     **** PHL Z 6
     4 SEP1        5 GROUP        1 Z    SEP  0     **** SEP Z 7
     5 ALP2        8 GROUP        1 Z    ALP  0     **** ALP Z 8
     6 PHP6        9 GROUP        1 Z    PHP  0     **** PHP Z 13
     7 SEC1       11 GROUP        1 Z    SEC  0     **** SEC Z 14
     8 ALC2       14 GROUP        1 Z    ALC  0     **** ALC Z 15
     9 PHC6       15 GROUP        1 Z    PHC  0     **** PHC Z 20
@<TRIPOS>SET

