1wet_GUN_1_ligand
  -OEChem-08111718373D

 16 17  0     0  0  0  0  0  0999 V2000
   58.3005    7.6428  -11.5285 H   0  0  0  0  0  0  0  0  0  0  0  0
   59.2124    6.2945   -9.6069 H   0  0  0  0  0  0  0  0  0  0  0  0
   58.9165    3.7183   -8.7976 H   0  0  0  0  0  0  0  0  0  0  0  0
   58.3411    1.4668   -8.3955 H   0  0  0  0  0  0  0  0  0  0  0  0
   57.1986    0.6671   -9.4226 H   0  0  0  0  0  0  0  0  0  0  0  0
   58.0680    6.6860  -11.3540 C   0  0  0  0  0  0  0  0  0  0  0  0
   57.2310    4.7400  -11.5240 C   0  0  0  0  0  0  0  0  0  0  0  0
   56.5180    3.5720  -11.8910 C   0  0  0  0  0  0  0  0  0  0  0  0
   58.0490    4.7090  -10.4140 C   0  0  0  0  0  0  0  0  0  0  0  0
   57.6380    2.5820   -9.9420 C   0  0  0  0  0  0  0  0  0  0  0  0
   57.2390    5.9930  -12.1090 N   0  0  0  0  0  0  0  0  0  0  0  0
   56.7900    2.5310  -11.0130 N   0  0  0  0  0  0  0  0  0  0  0  0
   58.5790    5.9670  -10.3080 N   0  0  0  0  0  0  0  0  0  0  0  0
   58.3020    3.6700   -9.5850 N   0  0  0  0  0  0  0  0  0  0  0  0
   57.7340    1.4790   -9.1900 N   0  0  0  0  0  0  0  0  0  0  0  0
   55.7540    3.3850  -12.8660 O   0  0  0  0  0  0  0  0  0  0  0  0
  1  6  1  0  0  0  0
  2 13  1  0  0  0  0
  3 14  1  0  0  0  0
  4 15  1  0  0  0  0
  5 15  1  0  0  0  0
  6 11  2  0  0  0  0
  6 13  1  0  0  0  0
  7  8  1  0  0  0  0
  7  9  2  0  0  0  0
  7 11  1  0  0  0  0
  8 12  1  0  0  0  0
  8 16  2  0  0  0  0
  9 13  1  0  0  0  0
  9 14  1  0  0  0  0
 10 12  2  0  0  0  0
 10 14  1  0  0  0  0
 10 15  1  0  0  0  0
M  END
> <scpdb_id>
1wet_1

$$$$
