@<TRIPOS>MOLECULE
1wet_GUN_1_ligand
   16    17     1     0     0
SMALL
NO_CHARGES


@<TRIPOS>ATOM
     1 N9          58.5790     5.9670   -10.3080 N.pl3        1 GUN599   0.0000
     2 C8          58.0680     6.6860   -11.3540 C.2          1 GUN599   0.0000
     3 N7          57.2390     5.9930   -12.1090 N.2          1 GUN599   0.0000
     4 C5          57.2310     4.7400   -11.5240 C.2          1 GUN599   0.0000
     5 C6          56.5180     3.5720   -11.8910 C.2          1 GUN599   0.0000
     6 O6          55.7540     3.3850   -12.8660 O.2          1 GUN599   0.0000
     7 N1          56.7900     2.5310   -11.0130 N.2          1 GUN599   0.0000
     8 C2          57.6380     2.5820    -9.9420 C.2          1 GUN599   0.0000
     9 N2          57.7340     1.4790    -9.1900 N.pl3        1 GUN599   0.0000
    10 N3          58.3020     3.6700    -9.5850 N.pl3        1 GUN599   0.0000
    11 C4          58.0490     4.7090   -10.4140 C.2          1 GUN599   0.0000
    12 H1          59.2124     6.2945    -9.6069 H            1 GUN599   0.0000
    13 H2          58.3005     7.6428   -11.5285 H            1 GUN599   0.0000
    14 H3          58.3411     1.4668    -8.3955 H            1 GUN599   0.0000
    15 H4          57.1986     0.6671    -9.4226 H            1 GUN599   0.0000
    16 H5          58.9165     3.7183    -8.7976 H            1 GUN599   0.0000
@<TRIPOS>BOND
     1    1    2       1
     2    1   11       1
     3    2    3       2
     4    3    4       1
     5    4    5       1
     6    4   11       2
     7    5    6       2
     8    5    7       1
     9    7    8       2
    10    8    9       1
    11    8   10       1
    12   10   11       1
    13    1   12       1
    14    2   13       1
    15    9   15       1
    16    9   14       1
    17   10   16       1
@<TRIPOS>SUBSTRUCTURE
     1 GUN599      1 GROUP             4 A     GUN     0 **** GUN A 599
