@<TRIPOS>MOLECULE
3ix4_TX1_7_ligand
   44    46     1     0     0
SMALL
NO_CHARGES


@<TRIPOS>ATOM
     1 C1          36.2120    30.1990   -46.1560 C.ar         1 TX1174   0.0000
     2 C2          37.3680    31.0920   -46.3180 C.ar         1 TX1174   0.0000
     3 C3          38.6400    30.5840   -46.0760 C.ar         1 TX1174   0.0000
     4 C4          38.8030    29.2480   -45.6880 C.ar         1 TX1174   0.0000
     5 C5          37.7300    28.3680   -45.5250 C.ar         1 TX1174   0.0000
     6 C6          36.4220    28.7960   -45.7530 C.ar         1 TX1174   0.0000
     7 C7          35.2270    27.8800   -45.5910 C.3          1 TX1174   0.0000
     8 N8          35.5700    26.5220   -45.9750 N.am         1 TX1174   0.0000
     9 C9          35.9170    25.5920   -45.0910 C.2          1 TX1174   0.0000
    10 C10         35.9530    24.1640   -45.5420 C.ar         1 TX1174   0.0000
    11 C11         34.7600    23.5140   -45.8260 C.ar         1 TX1174   0.0000
    12 C12         34.7780    22.1830   -46.2350 C.ar         1 TX1174   0.0000
    13 C13         35.9720    21.4760   -46.3660 C.ar         1 TX1174   0.0000
    14 C14         37.1920    22.0790   -46.0830 C.ar         1 TX1174   0.0000
    15 C15         37.2280    23.4040   -45.6750 C.ar         1 TX1174   0.0000
    16 N16         38.4660    24.0000   -45.4170 N.2          1 TX1174   1.0000
    17 O17         36.2160    25.8490   -43.9270 O.2          1 TX1174   0.0000
    18 O18         39.3680    23.3360   -44.9420 O.co2        1 TX1174   0.0000
    19 O19         38.6550    25.3330   -45.7390 O.co2        1 TX1174  -1.0000
    20 O20         34.9640    30.6720   -46.4120 O.3          1 TX1174   0.0000
    21 C21         34.2820    31.5280   -45.4880 C.2          1 TX1174   0.0000
    22 O22         34.8210    31.8470   -44.4420 O.2          1 TX1174   0.0000
    23 BR23        37.0540    32.8740   -46.8530 Br           1 TX1174   0.0000
    24 BR24        40.5420    28.5950   -45.3790 Br           1 TX1174   0.0000
    25 C25         32.9160    31.9620   -45.8990 C.ar         1 TX1174   0.0000
    26 C26         32.0260    31.0150   -46.3970 C.ar         1 TX1174   0.0000
    27 C27         30.7470    31.4100   -46.7860 C.ar         1 TX1174   0.0000
    28 C28         30.3550    32.7430   -46.7010 C.ar         1 TX1174   0.0000
    29 C29         31.2180    33.7320   -46.2280 C.ar         1 TX1174   0.0000
    30 C30         32.5020    33.3770   -45.8260 C.ar         1 TX1174   0.0000
    31 CL31        33.6440    34.5980   -45.2090 Cl           1 TX1174   0.0000
    32 H1          39.4405    31.1743   -46.1793 H            1 TX1174   0.0000
    33 H2          37.9010    27.4240   -45.2427 H            1 TX1174   0.0000
    34 H3          34.4808    28.2072   -46.1707 H            1 TX1174   0.0000
    35 H4          34.9341    27.8874   -44.6349 H            1 TX1174   0.0000
    36 H5          35.5441    26.2766   -46.9441 H            1 TX1174   0.0000
    37 H6          33.8905    23.9998   -45.7372 H            1 TX1174   0.0000
    38 H7          33.9137    21.7235   -46.4396 H            1 TX1174   0.0000
    39 H8          35.9507    20.5228   -46.6674 H            1 TX1174   0.0000
    40 H9          38.0413    21.5589   -46.1733 H            1 TX1174   0.0000
    41 H10         32.3023    30.0571   -46.4753 H            1 TX1174   0.0000
    42 H11         30.1029    30.7271   -47.1305 H            1 TX1174   0.0000
    43 H12         29.4312    32.9983   -46.9863 H            1 TX1174   0.0000
    44 H13         30.9174    34.6845   -46.1785 H            1 TX1174   0.0000
@<TRIPOS>BOND
     1    1    2      ar
     2    1    6      ar
     3    1   20       1
     4    2    3      ar
     5    2   23       1
     6    3    4      ar
     7    4    5      ar
     8    4   24       1
     9    5    6      ar
    10    6    7       1
    11    7    8       1
    12    8    9      am
    13    9   10       1
    14    9   17       2
    15   10   11      ar
    16   10   15      ar
    17   11   12      ar
    18   12   13      ar
    19   13   14      ar
    20   14   15      ar
    21   15   16       1
    22   16   18      ar
    23   16   19      ar
    24   20   21       1
    25   21   22       2
    26   21   25       1
    27   25   26      ar
    28   25   30      ar
    29   26   27      ar
    30   27   28      ar
    31   28   29      ar
    32   29   30      ar
    33   30   31       1
    34    3   32       1
    35    5   33       1
    36    7   34       1
    37    7   35       1
    38    8   36       1
    39   11   37       1
    40   12   38       1
    41   13   39       1
    42   14   40       1
    43   26   41       1
    44   27   42       1
    45   28   43       1
    46   29   44       1
@<TRIPOS>SUBSTRUCTURE
     1 TX1174      1 GROUP             4 G     TX1     0 **** TX1 G 174
