#    Name: 516
#    Modification time : Tue Aug  8 20:51:52 2017

@<TRIPOS>MOLECULE
516
   16     0     9     0     0
SMALL
NO_CHARGES


@<TRIPOS>ATOM
      1 N          56.0710    3.3940  -12.9010 N.am      1 SEL1        0.0000 
      2 N          57.5460    5.9780  -12.0390 N.am      1 SEL1        0.0000 
      3 O          58.7320    5.9290  -10.1550 O.2       2 ALL2        0.0000 
      4 CZ         58.0526    5.5886  -11.0446 C.ar      3 PHL6        0.0000 
      5 N          55.3610    2.3720  -15.7860 N.am      4 SEP1        0.0000 
      6 N          55.1620    0.8330  -14.0880 N.am      4 SEP1        0.0000 
      7 N          57.3970    6.8120  -14.5910 N.am      4 SEP1        0.0000 
      8 O          60.4520    6.8090   -8.2790 O.2       5 ALP2        0.0000 
      9 CZ         56.3315    7.3192   -8.3905 C.ar      6 PHP6        0.0000 
     10 CZ         59.8108    3.6238  -13.4135 C.ar      6 PHP6        0.0000 
     11 N          55.7160    2.8830  -14.3435 N.am      7 SEC1        0.0000 
     12 N          55.6165    2.1135  -13.4945 N.am      7 SEC1        0.0000 
     13 N          57.4715    6.3950  -13.3150 N.am      7 SEC1        0.0000 
     14 O          59.5920    6.3690   -9.2170 O.2       8 ALC2        0.0000 
     15 CZ         57.1921    6.4539   -9.7176 C.ar      9 PHC6        0.0000 
     16 CZ         58.9317    4.6062  -12.2291 C.ar      9 PHC6        0.0000 
@<TRIPOS>BOND
@<TRIPOS>SUBSTRUCTURE
     1 SEL1        1 GROUP        1 Z    SEL  0     ROOT SEL Z 0
     2 ALL2        3 GROUP        1 Z    ALL  0     **** ALL Z 1
     3 PHL6        4 GROUP        1 Z    PHL  0     **** PHL Z 6
     4 SEP1        5 GROUP        1 Z    SEP  0     **** SEP Z 7
     5 ALP2        8 GROUP        1 Z    ALP  0     **** ALP Z 8
     6 PHP6        9 GROUP        1 Z    PHP  0     **** PHP Z 13
     7 SEC1       11 GROUP        1 Z    SEC  0     **** SEC Z 14
     8 ALC2       14 GROUP        1 Z    ALC  0     **** ALC Z 15
     9 PHC6       15 GROUP        1 Z    PHC  0     **** PHC Z 20
@<TRIPOS>SET

