2jfa_RAL_2_ligand
  -OEChem-08111718373D

 62 66  0     1  0  0  0  0  0999 V2000
  -46.6716   10.8192    4.9906 H   0  0  0  0  0  0  0  0  0  0  0  0
  -43.3249   15.0916    5.2261 H   0  0  0  0  0  0  0  0  0  0  0  0
  -45.1804   16.1552    8.7315 H   0  0  0  0  0  0  0  0  0  0  0  0
  -44.9512   13.8549    3.5985 H   0  0  0  0  0  0  0  0  0  0  0  0
  -42.4584   10.8338    4.9050 H   0  0  0  0  0  0  0  0  0  0  0  0
  -49.0040   10.5120    4.5745 H   0  0  0  0  0  0  0  0  0  0  0  0
  -41.4509   16.4337    5.7841 H   0  0  0  0  0  0  0  0  0  0  0  0
  -43.2927   17.5346    9.3154 H   0  0  0  0  0  0  0  0  0  0  0  0
  -44.0206   13.7178    1.4121 H   0  0  0  0  0  0  0  0  0  0  0  0
  -41.5218   10.6794    2.7159 H   0  0  0  0  0  0  0  0  0  0  0  0
  -49.8365   14.3634    5.8714 H   0  0  0  0  0  0  0  0  0  0  0  0
  -42.2656   12.5329   -4.7860 H   0  0  0  0  0  0  0  0  0  0  0  0
  -43.5345   11.8223   -5.5288 H   0  0  0  0  0  0  0  0  0  0  0  0
  -44.2537   12.8353   -3.4890 H   0  0  0  0  0  0  0  0  0  0  0  0
  -44.4393   11.2149   -3.4083 H   0  0  0  0  0  0  0  0  0  0  0  0
  -41.7849   10.2425   -5.4632 H   0  0  0  0  0  0  0  0  0  0  0  0
  -42.9313    9.7454   -4.4120 H   0  0  0  0  0  0  0  0  0  0  0  0
  -42.3850   12.7812   -2.1644 H   0  0  0  0  0  0  0  0  0  0  0  0
  -43.4859   11.8374   -1.4135 H   0  0  0  0  0  0  0  0  0  0  0  0
  -40.7496    9.6962   -3.4134 H   0  0  0  0  0  0  0  0  0  0  0  0
  -40.6230   11.3050   -3.6633 H   0  0  0  0  0  0  0  0  0  0  0  0
  -40.0727   10.5055   -1.3668 H   0  0  0  0  0  0  0  0  0  0  0  0
  -40.5047   12.0785   -1.4428 H   0  0  0  0  0  0  0  0  0  0  0  0
  -41.7418   10.2268    0.3622 H   0  0  0  0  0  0  0  0  0  0  0  0
  -40.4637   11.1468    0.7943 H   0  0  0  0  0  0  0  0  0  0  0  0
  -40.3201   17.8302    7.1813 H   0  0  0  0  0  0  0  0  0  0  0  0
  -51.1904   11.2779    4.5669 H   0  0  0  0  0  0  0  0  0  0  0  0
  -47.3200   11.5590    5.1700 C   0  0  0  0  0  0  0  0  0  0  0  0
  -43.3300   15.6020    6.0860 C   0  0  0  0  0  0  0  0  0  0  0  0
  -44.4010   16.2170    8.1080 C   0  0  0  0  0  0  0  0  0  0  0  0
  -44.2300   13.1880    3.4110 C   0  0  0  0  0  0  0  0  0  0  0  0
  -42.7880   11.4350    4.1770 C   0  0  0  0  0  0  0  0  0  0  0  0
  -48.6770   11.3860    4.9340 C   0  0  0  0  0  0  0  0  0  0  0  0
  -42.2260   16.3840    6.4140 C   0  0  0  0  0  0  0  0  0  0  0  0
  -43.2910   17.0200    8.4580 C   0  0  0  0  0  0  0  0  0  0  0  0
  -43.6870   13.1140    2.1360 C   0  0  0  0  0  0  0  0  0  0  0  0
  -42.2390   11.3510    2.9020 C   0  0  0  0  0  0  0  0  0  0  0  0
  -49.1720   13.6400    5.6840 C   0  0  0  0  0  0  0  0  0  0  0  0
  -46.8900   12.7630    5.6530 C   0  0  0  0  0  0  0  0  0  0  0  0
  -44.4250   15.5110    6.9080 C   0  0  0  0  0  0  0  0  0  0  0  0
  -43.7900   12.3510    4.4360 C   0  0  0  0  0  0  0  0  0  0  0  0
  -45.5790   13.2900    5.9940 C   0  0  0  0  0  0  0  0  0  0  0  0
  -42.1890   17.0900    7.5960 C   0  0  0  0  0  0  0  0  0  0  0  0
  -42.6810   12.2000    1.8710 C   0  0  0  0  0  0  0  0  0  0  0  0
  -49.5900   12.4020    5.1870 C   0  0  0  0  0  0  0  0  0  0  0  0
  -47.8240   13.8470    5.9120 C   0  0  0  0  0  0  0  0  0  0  0  0
  -45.5570   14.6480    6.4700 C   0  0  0  0  0  0  0  0  0  0  0  0
  -44.3850   12.4790    5.8090 C   0  0  0  0  0  0  0  0  0  0  0  0
  -42.9440   11.8010   -4.7220 C   0  0  2  0  0  0  0  0  0  0  0  0
  -43.7730   11.9590   -3.4570 C   0  0  1  0  0  0  0  0  0  0  0  0
  -42.2580   10.4580   -4.6090 C   0  0  2  0  0  0  0  0  0  0  0  0
  -42.8910   11.9200   -2.2130 C   0  0  1  0  0  0  0  0  0  0  0  0
  -41.2570   10.5560   -3.4710 C   0  0  1  0  0  0  0  0  0  0  0  0
  -40.8240   11.1530   -1.2390 C   0  0  2  0  0  0  0  0  0  0  0  0
  -41.2760   11.0990    0.2130 C   0  0  1  0  0  0  0  0  0  0  0  0
  -41.9120   10.8090   -2.1740 N   0  3  1  0  0  0  0  0  0  0  0  0
  -43.8760   11.9940    6.7850 O   0  0  0  0  0  0  0  0  0  0  0  0
  -41.0690   17.8220    7.8440 O   0  0  0  0  0  0  0  0  0  0  0  0
  -50.9040   12.1650    4.9290 O   0  0  0  0  0  0  0  0  0  0  0  0
  -42.1670   12.1540    0.6020 O   0  0  0  0  0  0  0  0  0  0  0  0
  -47.1590   15.2780    6.4850 S   0  0  0  0  0  0  0  0  0  0  0  0
  -42.3681    9.9754   -1.8625 H   0  0  0  0  0  0  0  0  0  0  0  0
  1 28  1  0  0  0  0
  2 29  1  0  0  0  0
  3 30  1  0  0  0  0
  4 31  1  0  0  0  0
  5 32  1  0  0  0  0
  6 33  1  0  0  0  0
  7 34  1  0  0  0  0
  8 35  1  0  0  0  0
  9 36  1  0  0  0  0
 10 37  1  0  0  0  0
 11 38  1  0  0  0  0
 12 49  1  0  0  0  0
 13 49  1  0  0  0  0
 14 50  1  0  0  0  0
 15 50  1  0  0  0  0
 16 51  1  0  0  0  0
 17 51  1  0  0  0  0
 18 52  1  0  0  0  0
 19 52  1  0  0  0  0
 20 53  1  0  0  0  0
 21 53  1  0  0  0  0
 22 54  1  0  0  0  0
 23 54  1  0  0  0  0
 24 55  1  0  0  0  0
 25 55  1  0  0  0  0
 26 58  1  0  0  0  0
 27 59  1  0  0  0  0
 28 33  2  0  0  0  0
 28 39  1  0  0  0  0
 29 34  1  0  0  0  0
 29 40  2  0  0  0  0
 30 35  2  0  0  0  0
 30 40  1  0  0  0  0
 31 36  1  0  0  0  0
 31 41  2  0  0  0  0
 32 37  2  0  0  0  0
 32 41  1  0  0  0  0
 33 45  1  0  0  0  0
 34 43  2  0  0  0  0
 35 43  1  0  0  0  0
 36 44  2  0  0  0  0
 37 44  1  0  0  0  0
 38 45  2  0  0  0  0
 38 46  1  0  0  0  0
 39 42  1  0  0  0  0
 39 46  2  0  0  0  0
 40 47  1  0  0  0  0
 41 48  1  0  0  0  0
 42 47  2  0  0  0  0
 42 48  1  0  0  0  0
 43 58  1  0  0  0  0
 44 60  1  0  0  0  0
 45 59  1  0  0  0  0
 46 61  1  0  0  0  0
 47 61  1  0  0  0  0
 48 57  2  0  0  0  0
 49 50  1  0  0  0  0
 49 51  1  0  0  0  0
 50 52  1  0  0  0  0
 51 53  1  0  0  0  0
 52 56  1  0  0  0  0
 53 56  1  0  0  0  0
 54 55  1  0  0  0  0
 54 56  1  0  0  0  0
 55 60  1  0  0  0  0
 56 62  1  0  0  0  0
M  CHG  1  56   1
M  END
> <scpdb_id>
2jfa_2

$$$$
