#    Name: 7640
#    Modification time : Tue Aug  8 21:13:52 2017

@<TRIPOS>MOLECULE
7640
   16     0     9     0     0
SMALL
NO_CHARGES


@<TRIPOS>ATOM
      1 N          56.1620    3.6490  -12.7090 N.am      1 SEL1        0.0000 
      2 N          57.7170    6.1850  -11.7880 N.am      1 SEL1        0.0000 
      3 O          59.0000    6.0170   -9.9670 O.2       2 ALL2        0.0000 
      4 CZ         58.2746    5.7340  -10.8406 C.ar      3 PHL6        0.0000 
      5 N          55.7320    2.8570  -15.9750 N.am      4 SEP1        0.0000 
      6 N          55.5490    1.4840  -14.1350 N.am      4 SEP1        0.0000 
      7 N          57.3620    7.1720  -14.4340 N.am      4 SEP1        0.0000 
      8 O          60.8760    6.9460   -8.1400 O.2       5 ALP2        0.0000 
      9 CZ         56.6700    7.4665   -8.0883 C.ar      6 PHP6        0.0000 
     10 CZ         60.1368    3.8115  -13.3402 C.ar      6 PHP6        0.0000 
     11 N          55.9470    3.2530  -14.3420 N.am      7 SEC1        0.0000 
     12 N          55.8555    2.5665  -13.4220 N.am      7 SEC1        0.0000 
     13 N          57.5395    6.6785  -13.1110 N.am      7 SEC1        0.0000 
     14 O          59.9380    6.4815   -9.0535 O.2       8 ALC2        0.0000 
     15 CZ         57.4723    6.6002   -9.4645 C.ar      9 PHC6        0.0000 
     16 CZ         59.2057    4.7728  -12.0904 C.ar      9 PHC6        0.0000 
@<TRIPOS>BOND
@<TRIPOS>SUBSTRUCTURE
     1 SEL1        1 GROUP        1 Z    SEL  0     ROOT SEL Z 0
     2 ALL2        3 GROUP        1 Z    ALL  0     **** ALL Z 1
     3 PHL6        4 GROUP        1 Z    PHL  0     **** PHL Z 6
     4 SEP1        5 GROUP        1 Z    SEP  0     **** SEP Z 7
     5 ALP2        8 GROUP        1 Z    ALP  0     **** ALP Z 8
     6 PHP6        9 GROUP        1 Z    PHP  0     **** PHP Z 13
     7 SEC1       11 GROUP        1 Z    SEC  0     **** SEC Z 14
     8 ALC2       14 GROUP        1 Z    ALC  0     **** ALC Z 15
     9 PHC6       15 GROUP        1 Z    PHC  0     **** PHC Z 20
@<TRIPOS>SET

