#    Name: 26414
#    Modification time : Tue Aug  8 23:58:06 2017

@<TRIPOS>MOLECULE
26414
   27     0     9     0     0
SMALL
NO_CHARGES


@<TRIPOS>ATOM
      1 N          26.5500   68.0350   11.8080 N.am      1 SEL1        0.0000 
      2 O          24.7270   66.9820   10.8570 O.2       2 ALL2        0.0000 
      3 CA         24.0960   62.5400    7.0200 C.3       3 GLL5        0.0000 
      4 CA         29.0900   65.1440   10.2740 C.3       3 GLL5        0.0000 
      5 CA         24.0620   65.4430    4.9320 C.3       3 GLL5        0.0000 
      6 CA         28.7020   64.3570    9.2150 C.3       3 GLL5        0.0000 
      7 CA         27.4010   64.5340    8.8050 C.3       3 GLL5        0.0000 
      8 N          25.1640   70.0300   13.3540 N.am      4 SEP1        0.0000 
      9 N          28.9360   69.1600   13.0000 N.am      4 SEP1        0.0000 
     10 O          23.2120   69.5740   11.5150 O.2       5 ALP2        0.0000 
     11 CA         21.9310   59.1240    6.8900 C.3       6 GLP5        0.0000 
     12 CA         26.0880   61.1350   10.2110 C.3       6 GLP5        0.0000 
     13 CA         31.7650   67.1510   12.5400 C.3       6 GLP5        0.0000 
     14 CA         25.9940   68.1620    5.7380 C.3       6 GLP5        0.0000 
     15 CA         31.5080   67.7440    8.6700 C.3       6 GLP5        0.0000 
     16 CA         31.0680   62.1470    9.0690 C.3       6 GLP5        0.0000 
     17 CA         26.2450   62.3160   11.1360 C.3       6 GLP5        0.0000 
     18 N          25.8570   69.0325   12.5810 N.am      7 SEC1        0.0000 
     19 N          27.7430   68.5975   12.4040 N.am      7 SEC1        0.0000 
     20 O          23.9695   68.2780   11.1860 O.2       8 ALC2        0.0000 
     21 CA         23.0135   60.8320    6.9550 C.3       9 GLC5        0.0000 
     22 CA         25.0920   61.8375    8.6155 C.3       9 GLC5        0.0000 
     23 CA         30.2135   66.3730   11.5550 C.3       9 GLC5        0.0000 
     24 CA         25.2260   66.5068    5.4610 C.3       9 GLC5        0.0000 
     25 CA         30.0950   66.3600    9.2812 C.3       9 GLC5        0.0000 
     26 CA         29.6082   63.3946    9.1719 C.3       9 GLC5        0.0000 
     27 CA         27.2439   63.7263   10.5028 C.3       9 GLC5        0.0000 
@<TRIPOS>BOND
@<TRIPOS>SUBSTRUCTURE
     1 SEL1        1 GROUP        1 Z    SEL  0     ROOT SEL Z 0
     2 ALL2        2 GROUP        1 Z    ALL  0     **** ALL Z 1
     3 GLL5        3 GROUP        1 Z    GLL  0     **** GLL Z 4
     4 SEP1        8 GROUP        1 Z    SEP  0     **** SEP Z 7
     5 ALP2       10 GROUP        1 Z    ALP  0     **** ALP Z 8
     6 GLP5       11 GROUP        1 Z    GLP  0     **** GLP Z 11
     7 SEC1       18 GROUP        1 Z    SEC  0     **** SEC Z 14
     8 ALC2       20 GROUP        1 Z    ALC  0     **** ALC Z 15
     9 GLC5       21 GROUP        1 Z    GLC  0     **** GLC Z 18
@<TRIPOS>SET

