#    Name: 22418
#    Modification time : Tue Aug  8 19:14:01 2017

@<TRIPOS>MOLECULE
22418
   88     0     9     0     0
SMALL
NO_CHARGES


@<TRIPOS>ATOM
      1 N          12.8690   16.6410   36.4140 N.am      1 SEL1        0.0000 
      2 N           4.5250   26.0720   34.7300 N.am      1 SEL1        0.0000 
      3 O          12.8690   16.6410   36.4140 O.2       2 ALL2        0.0000 
      4 O          16.5660   15.6040   33.4620 O.2       2 ALL2        0.0000 
      5 O           4.5250   26.0720   34.7300 O.2       2 ALL2        0.0000 
      6 CA         13.9710   17.1940   35.7000 C.3       3 GLL5        0.0000 
      7 CA         15.3390   17.7010   33.0710 C.3       3 GLL5        0.0000 
      8 CA         14.1910   22.7330   32.1460 C.3       3 GLL5        0.0000 
      9 CA         12.9560   23.2830   31.4040 C.3       3 GLL5        0.0000 
     10 CA         12.1660   24.3440   32.1980 C.3       3 GLL5        0.0000 
     11 CA         13.0610   23.4890   34.2970 C.3       3 GLL5        0.0000 
     12 CA         12.7040   23.3350   35.7810 C.3       3 GLL5        0.0000 
     13 CA         10.8240   22.6200   33.4760 C.3       3 GLL5        0.0000 
     14 CA          9.9120   27.0420   34.9140 C.3       3 GLL5        0.0000 
     15 CA          8.6700   24.8780   34.8070 C.3       3 GLL5        0.0000 
     16 CA          4.8030   25.2120   32.5230 C.3       3 GLL5        0.0000 
     17 CA          3.8180   23.8160   34.3440 C.3       3 GLL5        0.0000 
     18 CA         14.6710   16.0930   34.9010 C.3       3 GLL5        0.0000 
     19 CA         15.8440   16.6740   34.1010 C.3       3 GLL5        0.0000 
     20 CA         11.5420   24.3250   35.9610 C.3       3 GLL5        0.0000 
     21 CA          6.2400   24.3690   34.4100 C.3       3 GLL5        0.0000 
     22 N          13.1970   13.8820   37.7700 N.am      4 SEP1        0.0000 
     23 N           5.6670   28.3890   34.0420 N.am      4 SEP1        0.0000 
     24 O          10.5320   15.8510   35.2940 O.2       5 ALP2        0.0000 
     25 O          18.9490   15.2020   35.2870 O.2       5 ALP2        0.0000 
     26 O           5.3330   26.2060   37.3280 O.2       5 ALP2        0.0000 
     27 CA          9.7550   15.8880   36.4800 C.3       6 GLP5        0.0000 
     28 CA         14.4550   16.6960   39.3640 C.3       6 GLP5        0.0000 
     29 CA         16.1210   20.6270   36.6590 C.3       6 GLP5        0.0000 
     30 CA         11.4440   16.6090   31.6780 C.3       6 GLP5        0.0000 
     31 CA         17.2230   24.1370   32.8470 C.3       6 GLP5        0.0000 
     32 CA         15.0390   20.8860   28.6330 C.3       6 GLP5        0.0000 
     33 CA         10.4250   22.3400   28.6630 C.3       6 GLP5        0.0000 
     34 CA         16.8470   25.1840   31.9900 C.3       6 GLP5        0.0000 
     35 CA         15.2240   23.3740   28.2010 C.3       6 GLP5        0.0000 
     36 CA          9.4210   24.6280   28.8550 C.3       6 GLP5        0.0000 
     37 CA         12.5090   27.7950   30.6480 C.3       6 GLP5        0.0000 
     38 CA         17.1220   24.3290   34.2460 C.3       6 GLP5        0.0000 
     39 CA          7.8340   20.8940   34.3650 C.3       6 GLP5        0.0000 
     40 CA          8.7680   30.2740   36.7040 C.3       6 GLP5        0.0000 
     41 CA         13.6800   27.6380   36.2690 C.3       6 GLP5        0.0000 
     42 CA          7.8840   23.5810   38.8650 C.3       6 GLP5        0.0000 
     43 CA          3.0390   25.0670   29.5870 C.3       6 GLP5        0.0000 
     44 CA          1.7070   28.0240   32.0550 C.3       6 GLP5        0.0000 
     45 CA          0.7300   26.1530   36.1040 C.3       6 GLP5        0.0000 
     46 CA          0.7890   21.2540   34.9410 C.3       6 GLP5        0.0000 
     47 CA         17.3400   14.2690   36.7430 C.3       6 GLP5        0.0000 
     48 CA         19.7240   17.9750   32.8450 C.3       6 GLP5        0.0000 
     49 CA         17.3470   17.7390   30.0360 C.3       6 GLP5        0.0000 
     50 CA         14.2340   14.6330   30.6670 C.3       6 GLP5        0.0000 
     51 CA         11.0230   20.3770   37.7950 C.3       6 GLP5        0.0000 
     52 CA         12.7490   24.7210   40.0570 C.3       6 GLP5        0.0000 
     53 CA         10.4650   28.8130   31.6860 C.3       6 GLP5        0.0000 
     54 N          13.0330   15.2615   37.0920 N.am      7 SEC1        0.0000 
     55 N           5.0960   27.2305   34.3860 N.am      7 SEC1        0.0000 
     56 O          11.7005   16.2460   35.8540 O.2       8 ALC2        0.0000 
     57 O          17.7575   15.4030   34.3745 O.2       8 ALC2        0.0000 
     58 O           4.9290   26.1390   36.0290 O.2       8 ALC2        0.0000 
     59 CA         11.8630   16.5410   36.0900 C.3       9 GLC5        0.0000 
     60 CA         14.2130   16.9450   37.5320 C.3       9 GLC5        0.0000 
     61 CA         15.0460   18.9105   36.1795 C.3       9 GLC5        0.0000 
     62 CA         13.3915   17.1550   32.3745 C.3       9 GLC5        0.0000 
     63 CA         15.7070   23.4350   32.4965 C.3       9 GLC5        0.0000 
     64 CA         14.6150   21.8095   30.3895 C.3       9 GLC5        0.0000 
     65 CA         11.6905   22.8115   30.0335 C.3       9 GLC5        0.0000 
     66 CA         14.9015   24.2335   31.6970 C.3       9 GLC5        0.0000 
     67 CA         14.0900   23.3285   29.8025 C.3       9 GLC5        0.0000 
     68 CA         10.7935   24.4860   30.5265 C.3       9 GLC5        0.0000 
     69 CA         12.3375   26.0695   31.4230 C.3       9 GLC5        0.0000 
     70 CA         15.0915   23.9090   34.2715 C.3       9 GLC5        0.0000 
     71 CA         14.4125   21.9810   36.2200 C.3       9 GLC5        0.0000 
     72 CA          9.3290   21.7570   33.9205 C.3       9 GLC5        0.0000 
     73 CA          9.3400   28.6580   35.8090 C.3       9 GLC5        0.0000 
     74 CA         11.7960   27.3400   35.5915 C.3       9 GLC5        0.0000 
     75 CA          8.2770   24.2295   36.8360 C.3       9 GLC5        0.0000 
     76 CA          3.9210   25.1395   31.0550 C.3       9 GLC5        0.0000 
     77 CA          3.2550   26.6180   32.2890 C.3       9 GLC5        0.0000 
     78 CA          2.2740   24.9845   35.2240 C.3       9 GLC5        0.0000 
     79 CA          2.3035   22.5350   34.6425 C.3       9 GLC5        0.0000 
     80 CA         16.2987   15.3262   35.6220 C.3       9 GLC5        0.0000 
     81 CA         17.6578   17.5813   33.2155 C.3       9 GLC5        0.0000 
     82 CA         16.4693   17.4632   31.8110 C.3       9 GLC5        0.0000 
     83 CA         14.7661   15.8376   32.2265 C.3       9 GLC5        0.0000 
     84 CA         11.5730   22.1035   36.8330 C.3       9 GLC5        0.0000 
     85 CA         12.4360   24.2755   37.9640 C.3       9 GLC5        0.0000 
     86 CA         12.6890   26.0060   35.7427 C.3       9 GLC5        0.0000 
     87 CA         10.1883   27.5750   33.1512 C.3       9 GLC5        0.0000 
     88 CA          7.4863   22.8094   34.3910 C.3       9 GLC5        0.0000 
@<TRIPOS>BOND
@<TRIPOS>SUBSTRUCTURE
     1 SEL1        1 GROUP        1 Z    SEL  0     ROOT SEL Z 0
     2 ALL2        3 GROUP        1 Z    ALL  0     **** ALL Z 1
     3 GLL5        6 GROUP        1 Z    GLL  0     **** GLL Z 4
     4 SEP1       22 GROUP        1 Z    SEP  0     **** SEP Z 7
     5 ALP2       24 GROUP        1 Z    ALP  0     **** ALP Z 8
     6 GLP5       27 GROUP        1 Z    GLP  0     **** GLP Z 11
     7 SEC1       54 GROUP        1 Z    SEC  0     **** SEC Z 14
     8 ALC2       56 GROUP        1 Z    ALC  0     **** ALC Z 15
     9 GLC5       59 GROUP        1 Z    GLC  0     **** GLC Z 18
@<TRIPOS>SET

