4bjx_73B_1_ligand
  -OEChem-08111718373D

 53 56  0     1  0  0  0  0  0999 V2000
   13.7055   -0.9610   13.1455 H   0  0  0  0  0  0  0  0  0  0  0  0
   16.3438   -0.9333   10.0121 H   0  0  0  0  0  0  0  0  0  0  0  0
   13.9586    1.1088   13.0787 H   0  0  0  0  0  0  0  0  0  0  0  0
   14.4987   -3.0790   13.8102 H   0  0  0  0  0  0  0  0  0  0  0  0
   17.1309   -3.0768   10.6543 H   0  0  0  0  0  0  0  0  0  0  0  0
   13.1608    3.2714   12.5738 H   0  0  0  0  0  0  0  0  0  0  0  0
   15.0624    0.9789    4.8260 H   0  0  0  0  0  0  0  0  0  0  0  0
   12.4774    0.7283    7.9932 H   0  0  0  0  0  0  0  0  0  0  0  0
   13.8551   -0.7326    3.7065 H   0  0  0  0  0  0  0  0  0  0  0  0
   11.2938   -0.9979    6.8758 H   0  0  0  0  0  0  0  0  0  0  0  0
   14.9343    0.5030    9.1303 H   0  0  0  0  0  0  0  0  0  0  0  0
   15.6249    4.1601    8.3940 H   0  0  0  0  0  0  0  0  0  0  0  0
   14.5507    4.7111    7.2944 H   0  0  0  0  0  0  0  0  0  0  0  0
   13.0460    3.0576    7.8818 H   0  0  0  0  0  0  0  0  0  0  0  0
   13.4254    5.7932    8.7588 H   0  0  0  0  0  0  0  0  0  0  0  0
   10.3323    4.8449   11.8395 H   0  0  0  0  0  0  0  0  0  0  0  0
   10.7980    3.4476   11.1343 H   0  0  0  0  0  0  0  0  0  0  0  0
   11.6375    4.0413   12.4029 H   0  0  0  0  0  0  0  0  0  0  0  0
   14.5600    6.5782   10.6896 H   0  0  0  0  0  0  0  0  0  0  0  0
   15.7041    5.4369   10.4551 H   0  0  0  0  0  0  0  0  0  0  0  0
   15.4971    6.6239    9.3530 H   0  0  0  0  0  0  0  0  0  0  0  0
   15.5301    2.1248    6.9109 H   0  0  0  0  0  0  0  0  0  0  0  0
   14.4280   -1.4020   12.6130 C   0  0  0  0  0  0  0  0  0  0  0  0
   15.9430   -1.3870   10.8080 C   0  0  0  0  0  0  0  0  0  0  0  0
   13.9660    1.4250   12.1300 C   0  0  0  0  0  0  0  0  0  0  0  0
   14.8880   -2.6390   13.0010 C   0  0  0  0  0  0  0  0  0  0  0  0
   16.4070   -2.6360   11.1850 C   0  0  0  0  0  0  0  0  0  0  0  0
   13.5050    2.6820   11.8430 C   0  0  0  0  0  0  0  0  0  0  0  0
   14.2550    0.5760    5.2570 C   0  0  0  0  0  0  0  0  0  0  0  0
   12.7700    0.4320    7.0840 C   0  0  0  0  0  0  0  0  0  0  0  0
   13.5710   -0.4260    4.6150 C   0  0  0  0  0  0  0  0  0  0  0  0
   12.0910   -0.5760    6.4440 C   0  0  0  0  0  0  0  0  0  0  0  0
   14.5050    1.0590    9.8420 C   0  0  0  0  0  0  0  0  0  0  0  0
   14.9370   -0.7580   11.5120 C   0  0  0  0  0  0  0  0  0  0  0  0
   14.4410    0.5820   11.1440 C   0  0  0  0  0  0  0  0  0  0  0  0
   15.8780   -3.2790   12.2890 C   0  0  0  0  0  0  0  0  0  0  0  0
   13.9780    2.3010    9.5210 C   0  0  0  0  0  0  0  0  0  0  0  0
   13.5190    3.1270   10.5440 C   0  0  0  0  0  0  0  0  0  0  0  0
   13.8410    1.0320    6.4880 C   0  0  0  0  0  0  0  0  0  0  0  0
   12.5050   -0.9940    5.2300 C   0  0  0  0  0  0  0  0  0  0  0  0
   16.3820   -4.6180   12.7120 C   0  0  0  0  0  0  0  0  0  0  0  0
   11.9960    5.0490   10.6430 C   0  0  0  0  0  0  0  0  0  0  0  0
   14.6530    4.2700    8.1860 C   0  0  1  0  0  0  0  0  0  0  0  0
   14.0000    2.9070    8.1410 C   0  0  1  0  0  0  0  0  0  0  0  0
   14.0090    5.1520    9.2570 C   0  0  2  0  0  0  0  0  0  0  0  0
   11.1180    4.2820   11.5830 C   0  0  0  0  0  0  0  0  0  0  0  0
   15.0320    6.0240   10.0040 C   0  0  0  0  0  0  0  0  0  0  0  0
   13.1060    4.4410   10.1930 N   0  0  0  0  0  0  0  0  0  0  0  0
   14.5630    2.0190    7.1420 N   0  0  0  0  0  0  0  0  0  0  0  0
   15.7230   -5.2520   13.6010 O   0  5  0  0  0  0  0  0  0  0  0  0
   17.3860   -5.0350   12.2300 O   0  0  0  0  0  0  0  0  0  0  0  0
   11.7470    6.1620   10.3290 O   0  0  0  0  0  0  0  0  0  0  0  0
   11.6630   -2.3020    4.4280 Cl  0  0  0  0  0  0  0  0  0  0  0  0
  1 23  1  0  0  0  0
  2 24  1  0  0  0  0
  3 25  1  0  0  0  0
  4 26  1  0  0  0  0
  5 27  1  0  0  0  0
  6 28  1  0  0  0  0
  7 29  1  0  0  0  0
  8 30  1  0  0  0  0
  9 31  1  0  0  0  0
 10 32  1  0  0  0  0
 11 33  1  0  0  0  0
 12 43  1  0  0  0  0
 13 43  1  0  0  0  0
 14 44  1  0  0  0  0
 15 45  1  0  0  0  0
 16 46  1  0  0  0  0
 17 46  1  0  0  0  0
 18 46  1  0  0  0  0
 19 47  1  0  0  0  0
 20 47  1  0  0  0  0
 21 47  1  0  0  0  0
 22 49  1  0  0  0  0
 23 26  1  0  0  0  0
 23 34  2  0  0  0  0
 24 27  2  0  0  0  0
 24 34  1  0  0  0  0
 25 28  1  0  0  0  0
 25 35  2  0  0  0  0
 26 36  2  0  0  0  0
 27 36  1  0  0  0  0
 28 38  2  0  0  0  0
 29 31  1  0  0  0  0
 29 39  2  0  0  0  0
 30 32  2  0  0  0  0
 30 39  1  0  0  0  0
 31 40  2  0  0  0  0
 32 40  1  0  0  0  0
 33 35  1  0  0  0  0
 33 37  2  0  0  0  0
 34 35  1  0  0  0  0
 36 41  1  0  0  0  0
 37 38  1  0  0  0  0
 37 44  1  0  0  0  0
 38 48  1  0  0  0  0
 39 49  1  0  0  0  0
 40 53  1  0  0  0  0
 41 50  1  0  0  0  0
 41 51  2  0  0  0  0
 42 46  1  0  0  0  0
 42 48  1  0  0  0  0
 42 52  2  0  0  0  0
 43 44  1  0  0  0  0
 43 45  1  0  0  0  0
 44 49  1  0  0  0  0
 45 47  1  0  0  0  0
 45 48  1  0  0  0  0
M  CHG  1  50  -1
M  END
> <scpdb_id>
4bjx_1

$$$$
