#    Name: 3980
#    Modification time : Tue Aug  8 20:50:17 2017

@<TRIPOS>MOLECULE
3980
   74     0    12     0     0
SMALL
NO_CHARGES


@<TRIPOS>ATOM
      1 N          67.1330  -19.1660  -25.8050 N.am      1 SEL1        0.0000 
      2 N          65.0960  -18.9100  -24.5100 N.am      1 SEL1        0.0000 
      3 N          65.2410  -18.0840  -26.9120 N.am      1 SEL1        0.0000 
      4 N          65.3690  -20.8350  -28.8090 N.am      1 SEL1        0.0000 
      5 N          63.0810  -20.5660  -27.7140 N.am      1 SEL1        0.0000 
      6 N          65.2380  -20.5580  -26.3060 N.am      1 SEL1        0.0000 
      7 N          63.6970  -23.5210  -29.4910 N.am      1 SEL1        0.0000 
      8 N          65.9640  -24.2820  -28.6270 N.am      1 SEL1        0.0000 
      9 N          63.1230  -24.6140  -23.7550 N.am      1 SEL1        0.0000 
     10 N          56.8610  -26.7330  -24.8400 N.am      1 SEL1        0.0000 
     11 O          63.1230  -24.6140  -23.7550 O.2       2 ALL2        0.0000 
     12 O          61.4250  -26.7210  -23.1400 O.2       2 ALL2        0.0000 
     13 O          55.8460  -28.9150  -26.6990 O.2       2 ALL2        0.0000 
     14 NZ         67.1330  -19.1660  -25.8050 N.4       3 LYL3        0.0000 
     15 NZ         65.0960  -18.9100  -24.5100 N.4       3 LYL3        0.0000 
     16 NZ         63.6970  -23.5210  -29.4910 N.4       3 LYL3        0.0000 
     17 NZ         65.9640  -24.2820  -28.6270 N.4       3 LYL3        0.0000 
     18 CA         62.4130  -24.9760  -27.3220 C.3       4 GLL5        0.0000 
     19 CA         61.4420  -26.2540  -24.4760 C.3       4 GLL5        0.0000 
     20 CA         60.2530  -25.3260  -24.6920 C.3       4 GLL5        0.0000 
     21 N          68.0310  -21.1840  -24.1210 N.am      5 SEP1        0.0000 
     22 N          63.1440  -21.1260  -23.9730 N.am      5 SEP1        0.0000 
     23 N          65.5730  -21.6780  -22.8400 N.am      5 SEP1        0.0000 
     24 N          62.3910  -18.5010  -24.7840 N.am      5 SEP1        0.0000 
     25 N          66.5760  -16.9370  -22.9580 N.am      5 SEP1        0.0000 
     26 N          64.7220  -17.0320  -29.2700 N.am      5 SEP1        0.0000 
     27 N          62.5480  -17.3350  -27.3780 N.am      5 SEP1        0.0000 
     28 N          64.1520  -20.9270  -31.4840 N.am      5 SEP1        0.0000 
     29 N          68.1100  -21.4410  -28.2510 N.am      5 SEP1        0.0000 
     30 N          60.8630  -22.0480  -28.7560 N.am      5 SEP1        0.0000 
     31 N          60.8780  -19.0990  -28.6390 N.am      5 SEP1        0.0000 
     32 N          62.3350  -22.3270  -31.5590 N.am      5 SEP1        0.0000 
     33 N          68.5410  -23.6310  -27.6810 N.am      5 SEP1        0.0000 
     34 N          60.5190  -23.9460  -21.5940 N.am      5 SEP1        0.0000 
     35 N          54.8850  -26.6590  -22.9110 N.am      5 SEP1        0.0000 
     36 O          65.6480  -23.8600  -23.3820 O.2       6 ALP2        0.0000 
     37 O          60.5190  -23.9460  -21.5940 O.2       6 ALP2        0.0000 
     38 O          53.3610  -27.3940  -26.0560 O.2       6 ALP2        0.0000 
     39 NZ         66.5760  -16.9370  -22.9580 N.4       7 LYP3        0.0000 
     40 NZ         62.9750  -21.2490  -31.9960 N.4       7 LYP3        0.0000 
     41 NZ         68.9100  -22.3560  -27.7150 N.4       7 LYP3        0.0000 
     42 CA         63.0020  -29.1780  -27.1680 C.3       8 GLP5        0.0000 
     43 CA         60.1620  -28.9290  -21.5760 C.3       8 GLP5        0.0000 
     44 CA         58.0540  -22.3930  -23.2880 C.3       8 GLP5        0.0000 
     45 CA         60.9320  -24.7200  -20.5400 C.3       8 GLP5        0.0000 
     46 N          67.5820  -20.1750  -24.9630 N.am      9 SEC1        0.0000 
     47 N          64.1200  -20.0180  -24.2415 N.am      9 SEC1        0.0000 
     48 N          65.3345  -20.2940  -23.6750 N.am      9 SEC1        0.0000 
     49 N          63.7435  -18.7055  -24.6470 N.am      9 SEC1        0.0000 
     50 N          65.8360  -17.9235  -23.7340 N.am      9 SEC1        0.0000 
     51 N          64.9815  -17.5580  -28.0910 N.am      9 SEC1        0.0000 
     52 N          63.8945  -17.7095  -27.1450 N.am      9 SEC1        0.0000 
     53 N          64.7605  -20.8810  -30.1465 N.am      9 SEC1        0.0000 
     54 N          66.7395  -21.1380  -28.5300 N.am      9 SEC1        0.0000 
     55 N          61.9720  -21.3070  -28.2350 N.am      9 SEC1        0.0000 
     56 N          61.9795  -19.8325  -28.1765 N.am      9 SEC1        0.0000 
     57 N          64.1910  -20.8420  -25.1395 N.am      9 SEC1        0.0000 
     58 N          63.0160  -22.9240  -30.5250 N.am      9 SEC1        0.0000 
     59 N          63.9245  -22.2240  -30.4875 N.am      9 SEC1        0.0000 
     60 N          67.2525  -23.9565  -28.1540 N.am      9 SEC1        0.0000 
     61 N          61.8210  -24.2800  -22.6745 N.am      9 SEC1        0.0000 
     62 N          55.8730  -26.6960  -23.8755 N.am      9 SEC1        0.0000 
     63 O          64.3855  -24.2370  -23.5685 O.2      10 ALC2        0.0000 
     64 O          60.9720  -25.3335  -22.3670 O.2      10 ALC2        0.0000 
     65 O          54.6035  -28.1545  -26.3775 O.2      10 ALC2        0.0000 
     66 NZ         66.8545  -18.0515  -24.3815 N.4      11 LYC3        0.0000 
     67 NZ         65.8360  -17.9235  -23.7340 N.4      11 LYC3        0.0000 
     68 NZ         63.3360  -22.3850  -30.7435 N.4      11 LYC3        0.0000 
     69 NZ         67.4370  -23.3190  -28.1710 N.4      11 LYC3        0.0000 
     70 CA         62.7075  -27.0770  -27.2450 C.3      12 GLC5        0.0000 
     71 CA         60.8020  -27.5915  -23.0260 C.3      12 GLC5        0.0000 
     72 CA         59.1535  -23.8595  -23.9900 C.3      12 GLC5        0.0000 
     73 CA         62.5230  -27.5160  -25.9112 C.3      12 GLC5        0.0000 
     74 CA         60.8897  -25.2550  -22.5620 C.3      12 GLC5        0.0000 
@<TRIPOS>BOND
@<TRIPOS>SUBSTRUCTURE
     1 SEL1        1 GROUP        1 Z    SEL  0     ROOT SEL Z 0
     2 ALL2       11 GROUP        1 Z    ALL  0     **** ALL Z 1
     3 LYL3       14 GROUP        1 Z    LYL  0     **** LYL Z 2
     4 GLL5       18 GROUP        1 Z    GLL  0     **** GLL Z 4
     5 SEP1       21 GROUP        1 Z    SEP  0     **** SEP Z 7
     6 ALP2       36 GROUP        1 Z    ALP  0     **** ALP Z 8
     7 LYP3       39 GROUP        1 Z    LYP  0     **** LYP Z 9
     8 GLP5       42 GROUP        1 Z    GLP  0     **** GLP Z 11
     9 SEC1       46 GROUP        1 Z    SEC  0     **** SEC Z 14
    10 ALC2       63 GROUP        1 Z    ALC  0     **** ALC Z 15
    11 LYC3       66 GROUP        1 Z    LYC  0     **** LYC Z 16
    12 GLC5       70 GROUP        1 Z    GLC  0     **** GLC Z 18
@<TRIPOS>SET

