1j7k_ATP_1_ligand
  -OEChem-08111718373D

 43 45  0     1  0  0  0  0  0999 V2000
   59.8604  -28.9138  -28.3067 H   0  0  0  0  0  0  0  0  0  0  0  0
   57.6241  -25.2996  -23.6494 H   0  0  0  0  0  0  0  0  0  0  0  0
   63.3767  -26.0395  -25.1841 H   0  0  0  0  0  0  0  0  0  0  0  0
   61.3684  -27.0335  -25.0981 H   0  0  0  0  0  0  0  0  0  0  0  0
   62.4556  -23.5995  -25.7780 H   0  0  0  0  0  0  0  0  0  0  0  0
   60.1200  -24.7407  -23.8922 H   0  0  0  0  0  0  0  0  0  0  0  0
   62.0583  -25.9005  -27.4616 H   0  0  0  0  0  0  0  0  0  0  0  0
   61.9817  -24.3517  -27.9733 H   0  0  0  0  0  0  0  0  0  0  0  0
   55.5577  -29.6326  -27.3330 H   0  0  0  0  0  0  0  0  0  0  0  0
   55.1943  -28.5379  -26.0409 H   0  0  0  0  0  0  0  0  0  0  0  0
   64.0874  -24.3957  -23.9042 H   0  0  0  0  0  0  0  0  0  0  0  0
   60.6211  -26.3567  -22.6698 H   0  0  0  0  0  0  0  0  0  0  0  0
   59.2450  -28.5080  -27.6310 C   0  0  0  0  0  0  0  0  0  0  0  0
   57.7890  -25.9510  -24.3900 C   0  0  0  0  0  0  0  0  0  0  0  0
   57.5210  -27.4410  -25.8350 C   0  0  0  0  0  0  0  0  0  0  0  0
   58.8350  -27.0450  -25.9520 C   0  0  0  0  0  0  0  0  0  0  0  0
   57.0910  -28.4640  -26.7310 C   0  0  0  0  0  0  0  0  0  0  0  0
   62.6460  -25.4540  -24.8330 C   0  0  1  0  0  0  0  0  0  0  0  0
   61.4420  -26.2540  -24.4760 C   0  0  2  0  0  0  0  0  0  0  0  0
   62.1130  -24.5280  -25.9210 C   0  0  1  0  0  0  0  0  0  0  0  0
   60.2530  -25.3260  -24.6920 C   0  0  2  0  0  0  0  0  0  0  0  0
   62.4130  -24.9760  -27.3220 C   0  0  1  0  0  0  0  0  0  0  0  0
   59.7770  -27.5530  -26.8440 N   0  0  0  0  0  0  0  0  0  0  0  0
   57.9910  -28.9800  -27.6180 N   0  0  0  0  0  0  0  0  0  0  0  0
   56.8610  -26.7330  -24.8400 N   0  0  0  0  0  0  0  0  0  0  0  0
   59.0100  -26.0740  -24.9940 N   0  0  0  0  0  0  0  0  0  0  0  0
   55.8460  -28.9150  -26.6990 N   0  0  0  0  0  0  0  0  0  0  0  0
   65.0960  -18.9100  -24.5100 O   0  5  0  0  0  0  0  0  0  0  0  0
   65.2410  -18.0840  -26.9120 O   0  5  0  0  0  0  0  0  0  0  0  0
   65.9640  -24.2820  -28.6270 O   0  5  0  0  0  0  0  0  0  0  0  0
   63.0810  -20.5660  -27.7140 O   0  5  0  0  0  0  0  0  0  0  0  0
   67.1330  -19.1660  -25.8050 O   0  0  0  0  0  0  0  0  0  0  0  0
   63.6970  -23.5210  -29.4910 O   0  0  0  0  0  0  0  0  0  0  0  0
   65.3690  -20.8350  -28.8090 O   0  0  0  0  0  0  0  0  0  0  0  0
   60.6560  -24.5450  -25.8150 O   0  0  0  0  0  0  0  0  0  0  0  0
   63.1230  -24.6140  -23.7550 O   0  0  0  0  0  0  0  0  0  0  0  0
   61.4250  -26.7210  -23.1400 O   0  0  0  0  0  0  0  0  0  0  0  0
   63.8360  -24.9710  -27.5200 O   0  0  0  0  0  0  0  0  0  0  0  0
   65.2380  -20.5580  -26.3060 O   0  0  0  0  0  0  0  0  0  0  0  0
   64.4850  -22.6140  -27.3960 O   0  0  0  0  0  0  0  0  0  0  0  0
   65.6880  -19.0860  -25.8400 P   0  0  0  0  0  0  0  0  0  0  0  0
   64.5650  -23.8640  -28.3630 P   0  0  1  0  0  0  0  0  0  0  0  0
   64.4610  -21.0860  -27.6470 P   0  0  1  0  0  0  0  0  0  0  0  0
  1 13  1  0  0  0  0
  2 14  1  0  0  0  0
  3 18  1  0  0  0  0
  4 19  1  0  0  0  0
  5 20  1  0  0  0  0
  6 21  1  0  0  0  0
  7 22  1  0  0  0  0
  8 22  1  0  0  0  0
  9 27  1  0  0  0  0
 10 27  1  0  0  0  0
 11 36  1  0  0  0  0
 12 37  1  0  0  0  0
 13 23  1  0  0  0  0
 13 24  2  0  0  0  0
 14 25  2  0  0  0  0
 14 26  1  0  0  0  0
 15 16  1  0  0  0  0
 15 17  2  0  0  0  0
 15 25  1  0  0  0  0
 16 23  2  0  0  0  0
 16 26  1  0  0  0  0
 17 24  1  0  0  0  0
 17 27  1  0  0  0  0
 18 19  1  0  0  0  0
 18 20  1  0  0  0  0
 18 36  1  0  0  0  0
 19 21  1  0  0  0  0
 19 37  1  0  0  0  0
 20 22  1  0  0  0  0
 20 35  1  0  0  0  0
 21 26  1  0  0  0  0
 21 35  1  0  0  0  0
 22 38  1  0  0  0  0
 28 41  1  0  0  0  0
 29 41  1  0  0  0  0
 30 42  1  0  0  0  0
 31 43  1  0  0  0  0
 32 41  2  0  0  0  0
 33 42  2  0  0  0  0
 34 43  2  0  0  0  0
 38 42  1  0  0  0  0
 39 41  1  0  0  0  0
 39 43  1  0  0  0  0
 40 42  1  0  0  0  0
 40 43  1  0  0  0  0
M  CHG  4  28  -1  29  -1  31  -1  30  -1
M  END
> <scpdb_id>
1j7k_1

$$$$
