#    Name: 22098
#    Modification time : Tue Aug  8 20:19:22 2017

@<TRIPOS>MOLECULE
22098
   46     0    12     0     0
SMALL
NO_CHARGES


@<TRIPOS>ATOM
      1 N          25.5170    4.9990   -9.0670 N.am      1 SEL1        0.0000 
      2 N          25.4810    7.2900   -7.4550 N.am      1 SEL1        0.0000 
      3 N          23.7400    9.0500   -7.9000 N.am      1 SEL1        0.0000 
      4 N          23.6720    6.8310   -9.2190 N.am      1 SEL1        0.0000 
      5 N          27.9280    8.9950   -9.9030 N.am      1 SEL1        0.0000 
      6 N          25.5300    8.5440   -9.6550 N.am      1 SEL1        0.0000 
      7 N          26.2250   11.5250  -14.5140 N.am      1 SEL1        0.0000 
      8 N          29.6400    6.9910  -16.9120 N.am      1 SEL1        0.0000 
      9 O          30.4210    3.3540  -15.3900 O.2       2 ALL2        0.0000 
     10 NZ         25.4810    7.2900   -7.4550 N.4       3 LYL3        0.0000 
     11 NZ         23.7400    9.0500   -7.9000 N.4       3 LYL3        0.0000 
     12 CA         27.1860   10.0920  -12.8550 C.3       4 GLL5        0.0000 
     13 CA         28.1830    8.8740  -14.6070 C.3       4 GLL5        0.0000 
     14 N          28.5240    6.2840   -8.0720 N.am      5 SEP1        0.0000 
     15 N          27.9120    8.6500   -6.3750 N.am      5 SEP1        0.0000 
     16 N          22.5590   10.6150  -10.1020 N.am      5 SEP1        0.0000 
     17 N          25.0270   11.4080   -9.6210 N.am      5 SEP1        0.0000 
     18 N          26.1860   10.8790   -7.2980 N.am      5 SEP1        0.0000 
     19 N          22.2760    8.4880   -5.7710 N.am      5 SEP1        0.0000 
     20 N          21.6390    8.0110  -10.4510 N.am      5 SEP1        0.0000 
     21 N          30.1650    9.8770  -10.9340 N.am      5 SEP1        0.0000 
     22 N          30.0940    9.1610   -8.0140 N.am      5 SEP1        0.0000 
     23 N          23.5480   12.2330  -15.0040 N.am      5 SEP1        0.0000 
     24 N          31.4220    8.4730  -19.0720 N.am      5 SEP1        0.0000 
     25 O          31.9620    0.6100  -14.9730 O.2       6 ALP2        0.0000 
     26 NZ         22.2760    8.4880   -5.7710 N.4       7 LYP3        0.0000 
     27 CA         28.8410   13.6880  -12.0240 C.3       8 GLP5        0.0000 
     28 CA         30.1550   12.5900  -14.5660 C.3       8 GLP5        0.0000 
     29 N          27.0205    5.6415   -8.5695 N.am      9 SEC1        0.0000 
     30 N          27.0025    6.7870   -7.7635 N.am      9 SEC1        0.0000 
     31 N          26.6965    7.9700   -6.9150 N.am      9 SEC1        0.0000 
     32 N          23.1495    9.8325   -9.0010 N.am      9 SEC1        0.0000 
     33 N          24.3835   10.2290   -8.7605 N.am      9 SEC1        0.0000 
     34 N          24.9630    9.9645   -7.5990 N.am      9 SEC1        0.0000 
     35 N          23.0080    8.7690   -6.8355 N.am      9 SEC1        0.0000 
     36 N          22.6555    7.4210   -9.8350 N.am      9 SEC1        0.0000 
     37 N          29.0465    9.4360  -10.4185 N.am      9 SEC1        0.0000 
     38 N          29.0110    9.0780   -8.9585 N.am      9 SEC1        0.0000 
     39 N          25.2785    9.9760   -9.6380 N.am      9 SEC1        0.0000 
     40 N          24.8865   11.8790  -14.7590 N.am      9 SEC1        0.0000 
     41 N          30.5310    7.7320  -17.9920 N.am      9 SEC1        0.0000 
     42 O          31.1915    1.9820  -15.1815 O.2      10 ALC2        0.0000 
     43 NZ         23.8785    7.8890   -6.6130 N.4      11 LYC3        0.0000 
     44 NZ         23.0080    8.7690   -6.8355 N.4      11 LYC3        0.0000 
     45 CA         28.0135   11.8900  -12.4395 C.3      12 GLC5        0.0000 
     46 CA         29.1690   10.7320  -14.5865 C.3      12 GLC5        0.0000 
@<TRIPOS>BOND
@<TRIPOS>SUBSTRUCTURE
     1 SEL1        1 GROUP        1 Z    SEL  0     ROOT SEL Z 0
     2 ALL2        9 GROUP        1 Z    ALL  0     **** ALL Z 1
     3 LYL3       10 GROUP        1 Z    LYL  0     **** LYL Z 2
     4 GLL5       12 GROUP        1 Z    GLL  0     **** GLL Z 4
     5 SEP1       14 GROUP        1 Z    SEP  0     **** SEP Z 7
     6 ALP2       25 GROUP        1 Z    ALP  0     **** ALP Z 8
     7 LYP3       26 GROUP        1 Z    LYP  0     **** LYP Z 9
     8 GLP5       27 GROUP        1 Z    GLP  0     **** GLP Z 11
     9 SEC1       29 GROUP        1 Z    SEC  0     **** SEC Z 14
    10 ALC2       42 GROUP        1 Z    ALC  0     **** ALC Z 15
    11 LYC3       43 GROUP        1 Z    LYC  0     **** LYC Z 16
    12 GLC5       45 GROUP        1 Z    GLC  0     **** GLC Z 18
@<TRIPOS>SET

