2zr9_DTP_1_ligand
  -OEChem-08111718373D

 42 44  0     1  0  0  0  0  0999 V2000
   30.5275    6.2755  -18.5588 H   0  0  0  0  0  0  0  0  0  0  0  0
   28.0904    6.9506  -12.7691 H   0  0  0  0  0  0  0  0  0  0  0  0
   26.6668    9.4159  -15.9667 H   0  0  0  0  0  0  0  0  0  0  0  0
   26.1929    8.2553  -14.9201 H   0  0  0  0  0  0  0  0  0  0  0  0
   25.3152    9.9339  -13.7397 H   0  0  0  0  0  0  0  0  0  0  0  0
   27.5052   10.9644  -12.4848 H   0  0  0  0  0  0  0  0  0  0  0  0
   28.8010    9.4853  -15.1014 H   0  0  0  0  0  0  0  0  0  0  0  0
   25.8809    9.9023  -11.2438 H   0  0  0  0  0  0  0  0  0  0  0  0
   25.2215    9.4298  -12.6610 H   0  0  0  0  0  0  0  0  0  0  0  0
   30.8877    2.6692  -15.9497 H   0  0  0  0  0  0  0  0  0  0  0  0
   30.1394    3.1297  -14.4571 H   0  0  0  0  0  0  0  0  0  0  0  0
   26.9371   11.6443  -15.2059 H   0  0  0  0  0  0  0  0  0  0  0  0
   30.2570    6.0620  -17.6200 C   0  0  0  0  0  0  0  0  0  0  0  0
   28.5220    6.6810  -13.6300 C   0  0  0  0  0  0  0  0  0  0  0  0
   29.5250    5.5150  -15.1060 C   0  0  0  0  0  0  0  0  0  0  0  0
   29.2560    6.7630  -15.6520 C   0  0  0  0  0  0  0  0  0  0  0  0
   30.1750    4.5620  -15.8860 C   0  0  0  0  0  0  0  0  0  0  0  0
   26.7250    9.0960  -15.0210 C   0  0  2  0  0  0  0  0  0  0  0  0
   26.2360   10.1740  -14.0470 C   0  0  1  0  0  0  0  0  0  0  0  0
   27.1860   10.0920  -12.8550 C   0  0  1  0  0  0  0  0  0  0  0  0
   28.1830    8.8740  -14.6070 C   0  0  2  0  0  0  0  0  0  0  0  0
   26.0520    9.4220  -12.1040 C   0  0  1  0  0  0  0  0  0  0  0  0
   29.6400    6.9910  -16.9120 N   0  0  0  0  0  0  0  0  0  0  0  0
   30.5320    4.8600  -17.1380 N   0  0  0  0  0  0  0  0  0  0  0  0
   29.0670    5.4870  -13.8640 N   0  0  0  0  0  0  0  0  0  0  0  0
   28.6310    7.4610  -14.6950 N   0  0  0  0  0  0  0  0  0  0  0  0
   30.4210    3.3540  -15.3900 N   0  0  0  0  0  0  0  0  0  0  0  0
   23.4100    4.6570  -10.5600 O   0  5  0  0  0  0  0  0  0  0  0  0
   25.5170    4.9990   -9.0670 O   0  5  0  0  0  0  0  0  0  0  0  0
   27.2850    6.4990   -9.9920 O   0  5  0  0  0  0  0  0  0  0  0  0
   23.7400    9.0500   -7.9000 O   0  5  0  0  0  0  0  0  0  0  0  0
   23.2680    4.6430   -7.9550 O   0  0  0  0  0  0  0  0  0  0  0  0
   27.9280    8.9950   -9.9030 O   0  0  0  0  0  0  0  0  0  0  0  0
   25.4810    7.2900   -7.4550 O   0  0  0  0  0  0  0  0  0  0  0  0
   28.2040    9.1360  -13.1900 O   0  0  0  0  0  0  0  0  0  0  0  0
   26.2250   11.5250  -14.5140 O   0  0  0  0  0  0  0  0  0  0  0  0
   26.4470    8.0880  -11.8430 O   0  0  0  0  0  0  0  0  0  0  0  0
   23.6720    6.8310   -9.2190 O   0  0  0  0  0  0  0  0  0  0  0  0
   25.5300    8.5440   -9.6550 O   0  0  0  0  0  0  0  0  0  0  0  0
   23.9220    5.2410   -9.1430 P   0  0  0  0  0  0  0  0  0  0  0  0
   26.8940    8.0230  -10.3060 P   0  0  1  0  0  0  0  0  0  0  0  0
   24.6390    7.8820   -8.5010 P   0  0  1  0  0  0  0  0  0  0  0  0
  1 13  1  0  0  0  0
  2 14  1  0  0  0  0
  3 18  1  0  0  0  0
  4 18  1  0  0  0  0
  5 19  1  0  0  0  0
  6 20  1  0  0  0  0
  7 21  1  0  0  0  0
  8 22  1  0  0  0  0
  9 22  1  0  0  0  0
 10 27  1  0  0  0  0
 11 27  1  0  0  0  0
 12 36  1  0  0  0  0
 13 23  1  0  0  0  0
 13 24  2  0  0  0  0
 14 25  2  0  0  0  0
 14 26  1  0  0  0  0
 15 16  1  0  0  0  0
 15 17  2  0  0  0  0
 15 25  1  0  0  0  0
 16 23  2  0  0  0  0
 16 26  1  0  0  0  0
 17 24  1  0  0  0  0
 17 27  1  0  0  0  0
 18 19  1  0  0  0  0
 18 21  1  0  0  0  0
 19 20  1  0  0  0  0
 19 36  1  0  0  0  0
 20 22  1  0  0  0  0
 20 35  1  0  0  0  0
 21 26  1  0  0  0  0
 21 35  1  0  0  0  0
 22 37  1  0  0  0  0
 28 40  1  0  0  0  0
 29 40  1  0  0  0  0
 30 41  1  0  0  0  0
 31 42  1  0  0  0  0
 32 40  2  0  0  0  0
 33 41  2  0  0  0  0
 34 42  2  0  0  0  0
 37 41  1  0  0  0  0
 38 40  1  0  0  0  0
 38 42  1  0  0  0  0
 39 41  1  0  0  0  0
 39 42  1  0  0  0  0
M  CHG  4  28  -1  29  -1  31  -1  30  -1
M  END
> <scpdb_id>
2zr9_1

$$$$
