#    Name: 2466
#    Modification time : Tue Aug  8 21:08:01 2017

@<TRIPOS>MOLECULE
2466
   57     0     6     0     0
SMALL
NO_CHARGES


@<TRIPOS>ATOM
      1 O          34.7140   35.8400   45.9240 O.2       1 ALL2        0.0000 
      2 O          39.9290   26.3970   49.0460 O.2       1 ALL2        0.0000 
      3 CA         36.3690   34.7890   47.3360 C.3       2 GLL5        0.0000 
      4 CA         38.1740   33.8120   48.8530 C.3       2 GLL5        0.0000 
      5 CA         38.5280   31.2420   48.6740 C.3       2 GLL5        0.0000 
      6 CA         36.9690   31.0360   48.3940 C.3       2 GLL5        0.0000 
      7 CA         37.4210   28.4760   48.2650 C.3       2 GLL5        0.0000 
      8 CA         40.5930   29.8790   49.7660 C.3       2 GLL5        0.0000 
      9 CA         40.7570   28.3850   50.1930 C.3       2 GLL5        0.0000 
     10 CA         39.5320   27.6710   49.5660 C.3       2 GLL5        0.0000 
     11 CA         39.7380   28.6020   47.2060 C.3       2 GLL5        0.0000 
     12 CA         35.1510   32.2180   46.8610 C.3       2 GLL5        0.0000 
     13 CA         35.2240   34.6860   46.5030 C.3       2 GLL5        0.0000 
     14 CA         38.7480   32.5200   49.5170 C.3       2 GLL5        0.0000 
     15 CA         36.8000   29.7260   47.5770 C.3       2 GLL5        0.0000 
     16 O          33.0250   35.4970   43.6940 O.2       3 ALP2        0.0000 
     17 O          33.0180   37.6880   43.5390 O.2       3 ALP2        0.0000 
     18 O          41.5080   25.1490   51.0030 O.2       3 ALP2        0.0000 
     19 CA         38.3930   35.5830   44.0580 C.3       4 GLP5        0.0000 
     20 CA         40.9230   35.7840   48.4190 C.3       4 GLP5        0.0000 
     21 CA         41.2020   32.5910   45.5840 C.3       4 GLP5        0.0000 
     22 CA         34.1100   28.6610   50.9020 C.3       4 GLP5        0.0000 
     23 CA         34.0110   32.4040   50.4940 C.3       4 GLP5        0.0000 
     24 CA         36.4130   25.1830   50.6700 C.3       4 GLP5        0.0000 
     25 CA         42.3070   33.5390   49.4830 C.3       4 GLP5        0.0000 
     26 CA         43.8100   26.1890   50.9510 C.3       4 GLP5        0.0000 
     27 CA         39.6630   24.9860   45.8390 C.3       4 GLP5        0.0000 
     28 CA         35.2490   30.4530   43.0830 C.3       4 GLP5        0.0000 
     29 CA         36.1640   35.3240   43.0130 C.3       4 GLP5        0.0000 
     30 CA         35.4370   37.6880   49.5500 C.3       4 GLP5        0.0000 
     31 CA         36.0250   35.8110   51.0610 C.3       4 GLP5        0.0000 
     32 CA         38.6530   34.7570   52.9930 C.3       4 GLP5        0.0000 
     33 CA         33.3460   28.1640   48.6180 C.3       4 GLP5        0.0000 
     34 CA         42.7160   29.1150   53.1580 C.3       4 GLP5        0.0000 
     35 CA         39.3350   28.2570   53.4850 C.3       4 GLP5        0.0000 
     36 O          33.8695   35.6685   44.8090 O.2       5 ALC2        0.0000 
     37 O          33.8660   36.7640   44.7315 O.2       5 ALC2        0.0000 
     38 O          40.7185   25.7730   50.0245 O.2       5 ALC2        0.0000 
     39 CA         37.3810   35.1860   45.6970 C.3       6 GLC5        0.0000 
     40 CA         39.5485   34.7980   48.6360 C.3       6 GLC5        0.0000 
     41 CA         39.8650   31.9165   47.1290 C.3       6 GLC5        0.0000 
     42 CA         35.5395   29.8485   49.6480 C.3       6 GLC5        0.0000 
     43 CA         35.4900   31.7200   49.4440 C.3       6 GLC5        0.0000 
     44 CA         36.9170   26.8295   49.4675 C.3       6 GLC5        0.0000 
     45 CA         41.4500   31.7090   49.6245 C.3       6 GLC5        0.0000 
     46 CA         42.2835   27.2870   50.5720 C.3       6 GLC5        0.0000 
     47 CA         37.9725   26.4270   50.1180 C.3       6 GLC5        0.0000 
     48 CA         39.7005   26.7940   46.5225 C.3       6 GLC5        0.0000 
     49 CA         35.0618   31.6300   44.8217 C.3       6 GLC5        0.0000 
     50 CA         35.5375   34.6825   44.6972 C.3       6 GLC5        0.0000 
     51 CA         35.6167   36.2127   48.2347 C.3       6 GLC5        0.0000 
     52 CA         36.7900   34.7660   49.7315 C.3       6 GLC5        0.0000 
     53 CA         38.5570   33.9615   51.0890 C.3       6 GLC5        0.0000 
     54 CA         40.4725   32.7100   49.2892 C.3       6 GLC5        0.0000 
     55 CA         35.2282   28.6325   48.2695 C.3       6 GLC5        0.0000 
     56 CA         41.6955   29.1235   51.5688 C.3       6 GLC5        0.0000 
     57 CA         39.7797   28.4241   51.6837 C.3       6 GLC5        0.0000 
@<TRIPOS>BOND
@<TRIPOS>SUBSTRUCTURE
     1 ALL2        1 GROUP        1 Z    ALL  0     ROOT ALL Z 1
     2 GLL5        3 GROUP        1 Z    GLL  0     **** GLL Z 4
     3 ALP2       16 GROUP        1 Z    ALP  0     **** ALP Z 8
     4 GLP5       19 GROUP        1 Z    GLP  0     **** GLP Z 11
     5 ALC2       36 GROUP        1 Z    ALC  0     **** ALC Z 15
     6 GLC5       39 GROUP        1 Z    GLC  0     **** GLC Z 18
@<TRIPOS>SET

