1wbb_ADP_1_ligand
  -OEChem-08111718373D

 39 41  0     1  0  0  0  0  0999 V2000
  140.7819   44.0440   17.9475 H   0  0  0  0  0  0  0  0  0  0  0  0
  137.4576   47.0845   13.3535 H   0  0  0  0  0  0  0  0  0  0  0  0
  134.6034   46.9683   14.1626 H   0  0  0  0  0  0  0  0  0  0  0  0
  135.9839   46.9258   15.8890 H   0  0  0  0  0  0  0  0  0  0  0  0
  134.0888   44.2013   13.9814 H   0  0  0  0  0  0  0  0  0  0  0  0
  136.7434   44.3339   15.8936 H   0  0  0  0  0  0  0  0  0  0  0  0
  135.1727   44.5740   11.7563 H   0  0  0  0  0  0  0  0  0  0  0  0
  133.7006   45.2387   11.9967 H   0  0  0  0  0  0  0  0  0  0  0  0
  143.1186   47.1031   15.5495 H   0  0  0  0  0  0  0  0  0  0  0  0
  142.0035   47.7297   14.3816 H   0  0  0  0  0  0  0  0  0  0  0  0
  132.6917   46.8546   14.9730 H   0  0  0  0  0  0  0  0  0  0  0  0
  134.0451   45.3477   16.8215 H   0  0  0  0  0  0  0  0  0  0  0  0
  140.5660   44.6650   17.1940 C   0  0  0  0  0  0  0  0  0  0  0  0
  138.1170   46.7200   14.0110 C   0  0  0  0  0  0  0  0  0  0  0  0
  139.9740   46.3850   15.1210 C   0  0  0  0  0  0  0  0  0  0  0  0
  139.0110   45.5360   15.6430 C   0  0  0  0  0  0  0  0  0  0  0  0
  141.2470   46.3630   15.6550 C   0  0  0  0  0  0  0  0  0  0  0  0
  134.5020   46.1180   14.6790 C   0  0  1  0  0  0  0  0  0  0  0  0
  135.5630   46.0310   15.7400 C   0  0  2  0  0  0  0  0  0  0  0  0
  134.7510   44.9190   13.7660 C   0  0  1  0  0  0  0  0  0  0  0  0
  136.5870   45.0430   15.2060 C   0  0  2  0  0  0  0  0  0  0  0  0
  134.6590   45.2520   12.2820 C   0  0  1  0  0  0  0  0  0  0  0  0
  139.2960   44.6870   16.6540 N   0  0  0  0  0  0  0  0  0  0  0  0
  141.5360   45.5060   16.6870 N   0  0  0  0  0  0  0  0  0  0  0  0
  139.4080   47.1060   14.1260 N   0  0  0  0  0  0  0  0  0  0  0  0
  137.8590   45.7460   14.9440 N   0  0  0  0  0  0  0  0  0  0  0  0
  142.2000   47.1270   15.1550 N   0  0  0  0  0  0  0  0  0  0  0  0
  134.0620   48.3770    8.0040 O   0  5  0  0  0  0  0  0  0  0  0  0
  135.6960   46.7220    7.0890 O   0  5  0  0  0  0  0  0  0  0  0  0
  135.6780   48.6250   10.7420 O   0  5  0  0  0  0  0  0  0  0  0  0
  133.4100   46.0380    7.4540 O   0  0  0  0  0  0  0  0  0  0  0  0
  133.3480   47.7060   10.8100 O   0  0  0  0  0  0  0  0  0  0  0  0
  136.0510   44.4460   14.0460 O   0  0  0  0  0  0  0  0  0  0  0  0
  133.2180   46.0480   15.2420 O   0  0  0  0  0  0  0  0  0  0  0  0
  135.0200   45.5320   16.9460 O   0  0  0  0  0  0  0  0  0  0  0  0
  135.2030   46.5410   12.0490 O   0  0  0  0  0  0  0  0  0  0  0  0
  135.0400   46.4850    9.4650 O   0  0  0  0  0  0  0  0  0  0  0  0
  134.5460   46.9200    7.9930 P   0  0  0  0  0  0  0  0  0  0  0  0
  134.7830   47.3950   10.7600 P   0  0  2  0  0  0  0  0  0  0  0  0
  1 13  1  0  0  0  0
  2 14  1  0  0  0  0
  3 18  1  0  0  0  0
  4 19  1  0  0  0  0
  5 20  1  0  0  0  0
  6 21  1  0  0  0  0
  7 22  1  0  0  0  0
  8 22  1  0  0  0  0
  9 27  1  0  0  0  0
 10 27  1  0  0  0  0
 11 34  1  0  0  0  0
 12 35  1  0  0  0  0
 13 23  1  0  0  0  0
 13 24  2  0  0  0  0
 14 25  2  0  0  0  0
 14 26  1  0  0  0  0
 15 16  1  0  0  0  0
 15 17  2  0  0  0  0
 15 25  1  0  0  0  0
 16 23  2  0  0  0  0
 16 26  1  0  0  0  0
 17 24  1  0  0  0  0
 17 27  1  0  0  0  0
 18 19  1  0  0  0  0
 18 20  1  0  0  0  0
 18 34  1  0  0  0  0
 19 21  1  0  0  0  0
 19 35  1  0  0  0  0
 20 22  1  0  0  0  0
 20 33  1  0  0  0  0
 21 26  1  0  0  0  0
 21 33  1  0  0  0  0
 22 36  1  0  0  0  0
 28 38  1  0  0  0  0
 29 38  1  0  0  0  0
 30 39  1  0  0  0  0
 31 38  2  0  0  0  0
 32 39  2  0  0  0  0
 36 39  1  0  0  0  0
 37 38  1  0  0  0  0
 37 39  1  0  0  0  0
M  CHG  3  28  -1  29  -1  30  -1
M  END
> <scpdb_id>
1wbb_1

$$$$
