@<TRIPOS>MOLECULE
1wbb_ADP_1_ligand
   39    41     1     0     0
SMALL
NO_CHARGES


@<TRIPOS>ATOM
     1 PB         134.5460    46.9200     7.9930 P.3          1 ADP1801   0.0000
     2 O1B        133.4100    46.0380     7.4540 O.co2        1 ADP1801   0.0000
     3 O2B        134.0620    48.3770     8.0040 O.co2        1 ADP1801  -1.0000
     4 O3B        135.6960    46.7220     7.0890 O.co2        1 ADP1801  -1.0000
     5 PA         134.7830    47.3950    10.7600 P.3          1 ADP1801   0.0000
     6 O1A        133.3480    47.7060    10.8100 O.co2        1 ADP1801   0.0000
     7 O2A        135.6780    48.6250    10.7420 O.co2        1 ADP1801  -1.0000
     8 O3A        135.0400    46.4850     9.4650 O.3          1 ADP1801   0.0000
     9 O5'        135.2030    46.5410    12.0490 O.3          1 ADP1801   0.0000
    10 C5'        134.6590    45.2520    12.2820 C.3          1 ADP1801   0.0000
    11 C4'        134.7510    44.9190    13.7660 C.3          1 ADP1801   0.0000
    12 O4'        136.0510    44.4460    14.0460 O.3          1 ADP1801   0.0000
    13 C3'        134.5020    46.1180    14.6790 C.3          1 ADP1801   0.0000
    14 O3'        133.2180    46.0480    15.2420 O.3          1 ADP1801   0.0000
    15 C2'        135.5630    46.0310    15.7400 C.3          1 ADP1801   0.0000
    16 O2'        135.0200    45.5320    16.9460 O.3          1 ADP1801   0.0000
    17 C1'        136.5870    45.0430    15.2060 C.3          1 ADP1801   0.0000
    18 N9         137.8590    45.7460    14.9440 N.pl3        1 ADP1801   0.0000
    19 C8         138.1170    46.7200    14.0110 C.2          1 ADP1801   0.0000
    20 N7         139.4080    47.1060    14.1260 N.2          1 ADP1801   0.0000
    21 C5         139.9740    46.3850    15.1210 C.ar         1 ADP1801   0.0000
    22 C6         141.2470    46.3630    15.6550 C.ar         1 ADP1801   0.0000
    23 N6         142.2000    47.1270    15.1550 N.pl3        1 ADP1801   0.0000
    24 N1         141.5360    45.5060    16.6870 N.ar         1 ADP1801   0.0000
    25 C2         140.5660    44.6650    17.1940 C.ar         1 ADP1801   0.0000
    26 N3         139.2960    44.6870    16.6540 N.ar         1 ADP1801   0.0000
    27 C4         139.0110    45.5360    15.6430 C.ar         1 ADP1801   0.0000
    28 H5'1       135.1727    44.5740    11.7563 H            1 ADP1801   0.0000
    29 H5'2       133.7006    45.2387    11.9967 H            1 ADP1801   0.0000
    30 H4'        134.0888    44.2013    13.9814 H            1 ADP1801   0.0000
    31 H3'        134.6034    46.9683    14.1626 H            1 ADP1801   0.0000
    32 H5         132.6917    46.8546    14.9730 H            1 ADP1801   0.0000
    33 H2'        135.9839    46.9258    15.8890 H            1 ADP1801   0.0000
    34 H7         134.0451    45.3477    16.8215 H            1 ADP1801   0.0000
    35 H1'        136.7434    44.3339    15.8936 H            1 ADP1801   0.0000
    36 H9         137.4576    47.0845    13.3535 H            1 ADP1801   0.0000
    37 H10        143.1186    47.1031    15.5495 H            1 ADP1801   0.0000
    38 H11        142.0035    47.7297    14.3816 H            1 ADP1801   0.0000
    39 H12        140.7819    44.0440    17.9475 H            1 ADP1801   0.0000
@<TRIPOS>BOND
     1    1    2      ar
     2    1    3      ar
     3    1    4      ar
     4    1    8       1
     5    5    6      ar
     6    5    7      ar
     7    5    8       1
     8    5    9       1
     9    9   10       1
    10   10   11       1
    11   11   12       1
    12   11   13       1
    13   12   17       1
    14   13   14       1
    15   13   15       1
    16   15   16       1
    17   15   17       1
    18   17   18       1
    19   18   19       1
    20   18   27       1
    21   19   20       2
    22   20   21       1
    23   21   22      ar
    24   21   27      ar
    25   22   23       1
    26   22   24      ar
    27   24   25      ar
    28   25   26      ar
    29   26   27      ar
    30   25   39       1
    31   23   38       1
    32   23   37       1
    33   10   28       1
    34   10   29       1
    35   11   30       1
    36   13   31       1
    37   14   32       1
    38   15   33       1
    39   16   34       1
    40   17   35       1
    41   19   36       1
@<TRIPOS>SUBSTRUCTURE
     1 ADP1801     1 GROUP             4 A     ADP     0 **** ADP A1801
