#    Name: 29157
#    Modification time : Wed Aug  9 00:37:56 2017

@<TRIPOS>MOLECULE
29157
   64     0     6     0     0
SMALL
NO_CHARGES


@<TRIPOS>ATOM
      1 O         -24.3190   -3.7730  -17.6010 O.2       1 ALL2        0.0000 
      2 CA        -24.9340   -0.1580  -18.8360 C.3       2 GLL5        0.0000 
      3 CA        -24.6950   -1.6900  -18.8860 C.3       2 GLL5        0.0000 
      4 CA        -24.6020    1.7330  -14.8760 C.3       2 GLL5        0.0000 
      5 CA        -25.0450    1.9330  -17.3660 C.3       2 GLL5        0.0000 
      6 CA        -25.6430    2.8000  -18.4930 C.3       2 GLL5        0.0000 
      7 CA        -24.9930    4.0050  -15.9550 C.3       2 GLL5        0.0000 
      8 CA        -24.9540    4.8020  -14.6480 C.3       2 GLL5        0.0000 
      9 CA        -24.9720    6.2440  -15.1370 C.3       2 GLL5        0.0000 
     10 CA        -27.3130    4.7320  -16.6730 C.3       2 GLL5        0.0000 
     11 CA        -27.0360    0.3990  -17.5930 C.3       2 GLL5        0.0000 
     12 CA        -25.9610    7.3770  -18.8310 C.3       2 GLL5        0.0000 
     13 CA        -24.8960    8.7040  -17.0590 C.3       2 GLL5        0.0000 
     14 CA        -23.4080    8.4850  -17.4070 C.3       2 GLL5        0.0000 
     15 CA        -21.1250    9.0270  -15.0090 C.3       2 GLL5        0.0000 
     16 CA        -22.1430   11.3210  -15.2400 C.3       2 GLL5        0.0000 
     17 CA        -24.2670   -2.3370  -17.5530 C.3       2 GLL5        0.0000 
     18 CA        -25.4760    4.3190  -18.3550 C.3       2 GLL5        0.0000 
     19 O         -25.6050   -5.0260  -20.2760 O.2       3 ALP2        0.0000 
     20 CA        -21.4350    1.7820  -19.8620 C.3       4 GLP5        0.0000 
     21 CA        -26.2210    1.3190  -22.2020 C.3       4 GLP5        0.0000 
     22 CA        -22.9150   -3.0860  -22.3340 C.3       4 GLP5        0.0000 
     23 CA        -23.5580    2.2860  -11.1770 C.3       4 GLP5        0.0000 
     24 CA        -30.0570    2.1310  -18.3730 C.3       4 GLP5        0.0000 
     25 CA        -20.8480    3.9940  -17.1910 C.3       4 GLP5        0.0000 
     26 CA        -27.3030    4.8070  -11.2480 C.3       4 GLP5        0.0000 
     27 CA        -23.7350    8.2980  -11.9500 C.3       4 GLP5        0.0000 
     28 CA        -31.0820    4.1470  -17.1560 C.3       4 GLP5        0.0000 
     29 CA        -29.9680    6.7910  -14.4740 C.3       4 GLP5        0.0000 
     30 CA        -29.3080   -2.1550  -18.8950 C.3       4 GLP5        0.0000 
     31 CA        -25.7880    4.3460  -21.5410 C.3       4 GLP5        0.0000 
     32 CA        -24.4680    9.0930  -21.6810 C.3       4 GLP5        0.0000 
     33 CA        -25.7730   11.7130  -14.1550 C.3       4 GLP5        0.0000 
     34 CA        -19.3670    6.0040  -16.5940 C.3       4 GLP5        0.0000 
     35 CA        -16.9550    7.9090  -14.6090 C.3       4 GLP5        0.0000 
     36 CA        -19.4190   13.2070  -14.2410 C.3       4 GLP5        0.0000 
     37 CA        -20.7860   -1.1350  -16.1020 C.3       4 GLP5        0.0000 
     38 CA        -26.8620   11.6810  -18.3170 C.3       4 GLP5        0.0000 
     39 O         -24.9620   -4.3995  -18.9385 O.2       5 ALC2        0.0000 
     40 CA        -23.1845    0.8120  -19.3490 C.3       6 GLC5        0.0000 
     41 CA        -25.5775    0.5805  -20.5190 C.3       6 GLC5        0.0000 
     42 CA        -23.8050   -2.3880  -20.6100 C.3       6 GLC5        0.0000 
     43 CA        -24.0800    2.0095  -13.0265 C.3       6 GLC5        0.0000 
     44 CA        -23.2400    1.8575  -18.6140 C.3       6 GLC5        0.0000 
     45 CA        -27.8500    2.4655  -18.4330 C.3       6 GLC5        0.0000 
     46 CA        -22.9205    3.9995  -16.5730 C.3       6 GLC5        0.0000 
     47 CA        -26.1285    4.8045  -12.9480 C.3       6 GLC5        0.0000 
     48 CA        -24.3535    7.2710  -13.5435 C.3       6 GLC5        0.0000 
     49 CA        -29.1975    4.4395  -16.9145 C.3       6 GLC5        0.0000 
     50 CA        -28.6405    5.7615  -15.5735 C.3       6 GLC5        0.0000 
     51 CA        -28.1720   -0.8780  -18.2440 C.3       6 GLC5        0.0000 
     52 CA        -28.5465    1.2650  -17.9830 C.3       6 GLC5        0.0000 
     53 CA        -25.8745    5.8615  -20.1860 C.3       6 GLC5        0.0000 
     54 CA        -25.2145    8.2350  -20.2560 C.3       6 GLC5        0.0000 
     55 CA        -25.3345   10.2085  -15.6070 C.3       6 GLC5        0.0000 
     56 CA        -23.9380    8.7890  -19.5440 C.3       6 GLC5        0.0000 
     57 CA        -20.2460    7.5155  -15.8015 C.3       6 GLC5        0.0000 
     58 CA        -19.0400    8.4680  -14.8090 C.3       6 GLC5        0.0000 
     59 CA        -20.7810   12.2640  -14.7405 C.3       6 GLC5        0.0000 
     60 CA        -22.7420   -1.6110  -16.5340 C.3       6 GLC5        0.0000 
     61 CA        -25.6737    3.9527  -19.9825 C.3       6 GLC5        0.0000 
     62 CA        -22.7225    8.8680  -13.6208 C.3       6 GLC5        0.0000 
     63 CA        -23.9960   11.1490  -14.7810 C.3       6 GLC5        0.0000 
     64 CA        -26.2354    9.7166  -17.9715 C.3       6 GLC5        0.0000 
@<TRIPOS>BOND
@<TRIPOS>SUBSTRUCTURE
     1 ALL2        1 GROUP        1 Z    ALL  0     ROOT ALL Z 1
     2 GLL5        2 GROUP        1 Z    GLL  0     **** GLL Z 4
     3 ALP2       19 GROUP        1 Z    ALP  0     **** ALP Z 8
     4 GLP5       20 GROUP        1 Z    GLP  0     **** GLP Z 11
     5 ALC2       39 GROUP        1 Z    ALC  0     **** ALC Z 15
     6 GLC5       40 GROUP        1 Z    GLC  0     **** GLC Z 18
@<TRIPOS>SET

