3kyt_HC2_1_ligand
  -OEChem-08111718373D

 75 78  0     1  0  0  0  0  0999 V2000
  -23.9803   -0.3447  -14.5847 H   0  0  0  0  0  0  0  0  0  0  0  0
  -23.6840    2.1167  -14.7762 H   0  0  0  0  0  0  0  0  0  0  0  0
  -25.0971    1.8240  -14.0119 H   0  0  0  0  0  0  0  0  0  0  0  0
  -24.8009   -2.2337  -15.5217 H   0  0  0  0  0  0  0  0  0  0  0  0
  -26.0841   -2.0964  -16.5223 H   0  0  0  0  0  0  0  0  0  0  0  0
  -24.1207    4.6066  -14.1309 H   0  0  0  0  0  0  0  0  0  0  0  0
  -25.7529    4.6034  -14.0802 H   0  0  0  0  0  0  0  0  0  0  0  0
  -26.6229    2.6055  -18.5376 H   0  0  0  0  0  0  0  0  0  0  0  0
  -25.2090    2.5240  -19.3506 H   0  0  0  0  0  0  0  0  0  0  0  0
  -24.1089    6.6954  -14.9106 H   0  0  0  0  0  0  0  0  0  0  0  0
  -25.7294    6.7418  -14.7144 H   0  0  0  0  0  0  0  0  0  0  0  0
  -23.9779   -1.8685  -19.5597 H   0  0  0  0  0  0  0  0  0  0  0  0
  -25.5455   -2.1254  -19.1811 H   0  0  0  0  0  0  0  0  0  0  0  0
  -25.5767    0.0630  -19.5696 H   0  0  0  0  0  0  0  0  0  0  0  0
  -24.0550    0.2824  -19.0189 H   0  0  0  0  0  0  0  0  0  0  0  0
  -26.0870    4.7670  -19.0076 H   0  0  0  0  0  0  0  0  0  0  0  0
  -24.5283    4.5558  -18.5690 H   0  0  0  0  0  0  0  0  0  0  0  0
  -26.3282    2.4268  -15.7826 H   0  0  0  0  0  0  0  0  0  0  0  0
  -24.0518    1.9490  -17.4816 H   0  0  0  0  0  0  0  0  0  0  0  0
  -24.0562    4.0426  -16.3028 H   0  0  0  0  0  0  0  0  0  0  0  0
  -24.2363    6.1292  -17.0496 H   0  0  0  0  0  0  0  0  0  0  0  0
  -23.3201   -2.0705  -17.3732 H   0  0  0  0  0  0  0  0  0  0  0  0
  -27.4175    0.8001  -16.7602 H   0  0  0  0  0  0  0  0  0  0  0  0
  -27.3643    0.9080  -18.3887 H   0  0  0  0  0  0  0  0  0  0  0  0
  -27.3246   -0.5557  -17.6657 H   0  0  0  0  0  0  0  0  0  0  0  0
  -27.5132    5.0704  -15.7535 H   0  0  0  0  0  0  0  0  0  0  0  0
  -27.8095    5.2807  -17.3456 H   0  0  0  0  0  0  0  0  0  0  0  0
  -27.5987    3.7765  -16.7461 H   0  0  0  0  0  0  0  0  0  0  0  0
  -21.0467    9.1909  -14.0256 H   0  0  0  0  0  0  0  0  0  0  0  0
  -21.2911    8.0546  -15.1727 H   0  0  0  0  0  0  0  0  0  0  0  0
  -20.2762    9.3009  -15.4612 H   0  0  0  0  0  0  0  0  0  0  0  0
  -21.9825   11.4253  -14.2585 H   0  0  0  0  0  0  0  0  0  0  0  0
  -21.3683   11.6995  -15.7465 H   0  0  0  0  0  0  0  0  0  0  0  0
  -22.9781   11.8086  -15.4948 H   0  0  0  0  0  0  0  0  0  0  0  0
  -26.3688    8.2251  -19.1694 H   0  0  0  0  0  0  0  0  0  0  0  0
  -25.0679    7.2422  -19.2601 H   0  0  0  0  0  0  0  0  0  0  0  0
  -26.5583    6.6071  -19.0556 H   0  0  0  0  0  0  0  0  0  0  0  0
  -23.3336    8.2907  -18.3851 H   0  0  0  0  0  0  0  0  0  0  0  0
  -23.0694    7.7022  -16.8850 H   0  0  0  0  0  0  0  0  0  0  0  0
  -23.0009   10.5226  -17.4174 H   0  0  0  0  0  0  0  0  0  0  0  0
  -21.6598    9.5996  -17.5449 H   0  0  0  0  0  0  0  0  0  0  0  0
  -24.9600    8.9494  -16.0917 H   0  0  0  0  0  0  0  0  0  0  0  0
  -25.2421    9.4577  -17.6177 H   0  0  0  0  0  0  0  0  0  0  0  0
  -23.1229    9.5307  -15.1122 H   0  0  0  0  0  0  0  0  0  0  0  0
  -24.6279   -4.0653  -18.5061 H   0  0  0  0  0  0  0  0  0  0  0  0
  -27.4928    8.5063  -17.0243 H   0  0  0  0  0  0  0  0  0  0  0  0
  -24.4800    0.2430  -15.2210 C   0  0  0  0  0  0  0  0  0  0  0  0
  -25.0050   -0.3280  -16.3310 C   0  0  0  0  0  0  0  0  0  0  0  0
  -24.6020    1.7330  -14.8760 C   0  0  2  0  0  0  0  0  0  0  0  0
  -25.1290   -1.8370  -16.3790 C   0  0  1  0  0  0  0  0  0  0  0  0
  -24.9540    4.8020  -14.6480 C   0  0  1  0  0  0  0  0  0  0  0  0
  -25.6430    2.8000  -18.4930 C   0  0  1  0  0  0  0  0  0  0  0  0
  -24.9720    6.2440  -15.1370 C   0  0  2  0  0  0  0  0  0  0  0  0
  -24.6950   -1.6900  -18.8860 C   0  0  2  0  0  0  0  0  0  0  0  0
  -24.9340   -0.1580  -18.8360 C   0  0  2  0  0  0  0  0  0  0  0  0
  -25.4760    4.3190  -18.3550 C   0  0  2  0  0  0  0  0  0  0  0  0
  -25.3470    2.5150  -15.9540 C   0  0  2  0  0  0  0  0  0  0  0  0
  -25.0450    1.9330  -17.3660 C   0  0  1  0  0  0  0  0  0  0  0  0
  -24.9930    4.0050  -15.9550 C   0  0  1  0  0  0  0  0  0  0  0  0
  -25.1590    6.1910  -16.6690 C   0  0  1  0  0  0  0  0  0  0  0  0
  -24.2670   -2.3370  -17.5530 C   0  0  2  0  0  0  0  0  0  0  0  0
  -25.4940    0.4680  -17.5380 C   0  0  2  0  0  0  0  0  0  0  0  0
  -25.8040    4.8370  -16.9400 C   0  0  1  0  0  0  0  0  0  0  0  0
  -27.0360    0.3990  -17.5930 C   0  0  0  0  0  0  0  0  0  0  0  0
  -27.3130    4.7320  -16.6730 C   0  0  0  0  0  0  0  0  0  0  0  0
  -21.1250    9.0270  -15.0090 C   0  0  0  0  0  0  0  0  0  0  0  0
  -22.1430   11.3210  -15.2400 C   0  0  0  0  0  0  0  0  0  0  0  0
  -25.9610    7.3770  -18.8310 C   0  0  0  0  0  0  0  0  0  0  0  0
  -23.4080    8.4850  -17.4070 C   0  0  1  0  0  0  0  0  0  0  0  0
  -22.5410    9.7000  -17.0830 C   0  0  2  0  0  0  0  0  0  0  0  0
  -24.8960    8.7040  -17.0590 C   0  0  1  0  0  0  0  0  0  0  0  0
  -22.2950    9.8490  -15.5740 C   0  0  1  0  0  0  0  0  0  0  0  0
  -25.7890    7.4640  -17.3070 C   0  0  2  0  0  0  0  0  0  0  0  0
  -24.3190   -3.7730  -17.6010 O   0  0  0  0  0  0  0  0  0  0  0  0
  -27.0560    7.6930  -16.6400 O   0  0  0  0  0  0  0  0  0  0  0  0
  1 47  1  0  0  0  0
  2 49  1  0  0  0  0
  3 49  1  0  0  0  0
  4 50  1  0  0  0  0
  5 50  1  0  0  0  0
  6 51  1  0  0  0  0
  7 51  1  0  0  0  0
  8 52  1  0  0  0  0
  9 52  1  0  0  0  0
 10 53  1  0  0  0  0
 11 53  1  0  0  0  0
 12 54  1  0  0  0  0
 13 54  1  0  0  0  0
 14 55  1  0  0  0  0
 15 55  1  0  0  0  0
 16 56  1  0  0  0  0
 17 56  1  0  0  0  0
 18 57  1  0  0  0  0
 19 58  1  0  0  0  0
 20 59  1  0  0  0  0
 21 60  1  0  0  0  0
 22 61  1  0  0  0  0
 23 64  1  0  0  0  0
 24 64  1  0  0  0  0
 25 64  1  0  0  0  0
 26 65  1  0  0  0  0
 27 65  1  0  0  0  0
 28 65  1  0  0  0  0
 29 66  1  0  0  0  0
 30 66  1  0  0  0  0
 31 66  1  0  0  0  0
 32 67  1  0  0  0  0
 33 67  1  0  0  0  0
 34 67  1  0  0  0  0
 35 68  1  0  0  0  0
 36 68  1  0  0  0  0
 37 68  1  0  0  0  0
 38 69  1  0  0  0  0
 39 69  1  0  0  0  0
 40 70  1  0  0  0  0
 41 70  1  0  0  0  0
 42 71  1  0  0  0  0
 43 71  1  0  0  0  0
 44 72  1  0  0  0  0
 45 74  1  0  0  0  0
 46 75  1  0  0  0  0
 47 48  2  0  0  0  0
 47 49  1  0  0  0  0
 48 50  1  0  0  0  0
 48 62  1  0  0  0  0
 49 57  1  0  0  0  0
 50 61  1  0  0  0  0
 51 53  1  0  0  0  0
 51 59  1  0  0  0  0
 52 56  1  0  0  0  0
 52 58  1  0  0  0  0
 53 60  1  0  0  0  0
 54 55  1  0  0  0  0
 54 61  1  0  0  0  0
 55 62  1  0  0  0  0
 56 63  1  0  0  0  0
 57 58  1  0  0  0  0
 57 59  1  0  0  0  0
 58 62  1  0  0  0  0
 59 63  1  0  0  0  0
 60 63  1  0  0  0  0
 60 73  1  0  0  0  0
 61 74  1  0  0  0  0
 62 64  1  0  0  0  0
 63 65  1  0  0  0  0
 66 72  1  0  0  0  0
 67 72  1  0  0  0  0
 68 73  1  0  0  0  0
 69 70  1  0  0  0  0
 69 71  1  0  0  0  0
 70 72  1  0  0  0  0
 71 73  1  0  0  0  0
 73 75  1  0  0  0  0
M  END
> <scpdb_id>
3kyt_1

$$$$
