@<TRIPOS>MOLECULE
1vpw_HPA_1_ligand
   15    16     1     0     0
SMALL
NO_CHARGES


@<TRIPOS>ATOM
     1 N1          56.5410     2.4330   -11.1750 N.2          1 HPA599   0.0000
     2 C2          57.3510     2.3550   -10.0670 C.2          1 HPA599   0.0000
     3 N3          58.0760     3.3650    -9.5980 N.pl3        1 HPA599   0.0000
     4 C4          57.9270     4.4850   -10.3430 C.2          1 HPA599   0.0000
     5 C5          57.1470     4.6620   -11.4630 C.2          1 HPA599   0.0000
     6 C6          56.3700     3.5800   -11.9460 C.2          1 HPA599   0.0000
     7 O6          55.6070     3.5550   -12.9200 O.2          1 HPA599   0.0000
     8 N7          57.2650     5.9630   -11.9330 N.2          1 HPA599   1.0000
     9 C8          58.0900     6.5370   -11.1010 C.2          1 HPA599   0.0000
    10 N9          58.5250     5.7020   -10.1030 N.pl3        1 HPA599   0.0000
    11 H1          57.3976     1.4814    -9.5825 H            1 HPA599   0.0000
    12 H2          58.3770     7.4914   -11.1827 H            1 HPA599   0.0000
    13 H3          59.1482     5.9303    -9.3550 H            1 HPA599   0.0000
    14 H4          58.6623     3.3047    -8.7902 H            1 HPA599   0.0000
    15 H5          56.8181     6.3690   -12.7301 H            1 HPA599   0.0000
@<TRIPOS>BOND
     1    1    2       2
     2    1    6       1
     3    2    3       1
     4    3    4       1
     5    4    5       2
     6    4   10       1
     7    5    6       1
     8    5    8       1
     9    6    7       2
    10    8    9       2
    11    9   10       1
    12   10   13       1
    13    2   11       1
    14    9   12       1
    15    3   14       1
    16    8   15       1
@<TRIPOS>SUBSTRUCTURE
     1 HPA599      1 GROUP             4 A     HPA     0 **** HPA A 599
