#    Name: 18987
#    Modification time : Tue Aug  8 22:52:09 2017

@<TRIPOS>MOLECULE
18987
   29     0     9     0     0
SMALL
NO_CHARGES


@<TRIPOS>ATOM
      1 N           4.1660   27.3840    4.1040 N.am      1 SEL1        0.0000 
      2 O           2.7830   28.9730   13.0160 O.2       2 ALL2        0.0000 
      3 CA          0.9400   31.7420   14.5250 C.3       3 GLL5        0.0000 
      4 CA          1.7750   29.0260    9.8950 C.3       3 GLL5        0.0000 
      5 CA          1.2970   29.5160    8.5270 C.3       3 GLL5        0.0000 
      6 CA          2.9340   27.0350    6.1350 C.3       3 GLL5        0.0000 
      7 CA          1.8230   29.9220   13.1660 C.3       3 GLL5        0.0000 
      8 CA          2.2280   27.5510    7.2160 C.3       3 GLL5        0.0000 
      9 CA          3.4890   27.8890    5.1740 C.3       3 GLL5        0.0000 
     10 N           6.8140   25.8280    5.3840 N.am      4 SEP1        0.0000 
     11 O           5.3638   28.7614   14.2199 O.2       5 ALP2        0.0000 
     12 CA          0.2200   28.3440   17.1090 C.3       6 GLP5        0.0000 
     13 CA          1.5810   25.0360   11.6470 C.3       6 GLP5        0.0000 
     14 CA          0.6960   33.2370    7.2770 C.3       6 GLP5        0.0000 
     15 CA         -0.7040   25.8050    6.0580 C.3       6 GLP5        0.0000 
     16 CA          1.9290   27.3530   15.6580 C.3       6 GLP5        0.0000 
     17 CA         -0.4850   25.6680    7.5760 C.3       6 GLP5        0.0000 
     18 CA          6.0170   28.9830    1.9420 C.3       6 GLP5        0.0000 
     19 CA         -1.5790   30.2890    6.0610 C.3       6 GLP5        0.0000 
     20 N           5.4900   26.6060    4.7440 N.am      7 SEC1        0.0000 
     21 O           4.0734   28.8672   13.6180 O.2       8 ALC2        0.0000 
     22 CA          0.5800   30.0430   15.8170 C.3       9 GLC5        0.0000 
     23 CA          1.6780   27.0310   10.7710 C.3       9 GLC5        0.0000 
     24 CA          0.9965   31.3765    7.9020 C.3       9 GLC5        0.0000 
     25 CA          1.1150   26.4200    6.0965 C.3       9 GLC5        0.0000 
     26 CA          1.8925   28.8410   14.6973 C.3       9 GLC5        0.0000 
     27 CA          0.7356   27.0266    7.5767 C.3       9 GLC5        0.0000 
     28 CA          4.7150   28.7815    3.5933 C.3       9 GLC5        0.0000 
     29 CA          0.2884   29.8939    6.6147 C.3       9 GLC5        0.0000 
@<TRIPOS>BOND
@<TRIPOS>SUBSTRUCTURE
     1 SEL1        1 GROUP        1 Z    SEL  0     ROOT SEL Z 0
     2 ALL2        2 GROUP        1 Z    ALL  0     **** ALL Z 1
     3 GLL5        3 GROUP        1 Z    GLL  0     **** GLL Z 4
     4 SEP1       10 GROUP        1 Z    SEP  0     **** SEP Z 7
     5 ALP2       11 GROUP        1 Z    ALP  0     **** ALP Z 8
     6 GLP5       12 GROUP        1 Z    GLP  0     **** GLP Z 11
     7 SEC1       20 GROUP        1 Z    SEC  0     **** SEC Z 14
     8 ALC2       21 GROUP        1 Z    ALC  0     **** ALC Z 15
     9 GLC5       22 GROUP        1 Z    GLC  0     **** GLC Z 18
@<TRIPOS>SET

