#    Name: 15977
#    Modification time : Tue Aug  8 23:30:39 2017

@<TRIPOS>MOLECULE
15977
   50     0    15     0     0
SMALL
NO_CHARGES


@<TRIPOS>ATOM
      1 N          63.5140   12.5530  118.5890 N.am      1 SEL1        0.0000 
      2 N          63.1640   15.0210  118.1550 N.am      1 SEL1        0.0000 
      3 N          64.3410   14.2440  120.2020 N.am      1 SEL1        0.0000 
      4 N          61.9100   13.5690  122.4800 N.am      1 SEL1        0.0000 
      5 N          56.8080    7.5250  124.2220 N.am      1 SEL1        0.0000 
      6 O          54.8930    8.5210  123.6900 O.2       2 ALL2        0.0000 
      7 O          52.7990    9.3850  123.2080 O.2       2 ALL2        0.0000 
      8 NZ         63.5140   12.5530  118.5890 N.4       3 LYL3        0.0000 
      9 NZ         63.1640   15.0210  118.1550 N.4       3 LYL3        0.0000 
     10 CA         59.0050   14.5420  120.1170 C.3       4 GLL5        0.0000 
     11 CA         57.5240   14.5630  120.4660 C.3       4 GLL5        0.0000 
     12 CA         57.0850   14.2840  122.8180 C.3       4 GLL5        0.0000 
     13 Zn         64.3410   14.2440  120.2020 Zn        5 ZIL7        0.0000 
     14 N          63.7280   10.7420  120.7340 N.am      6 SEP1        0.0000 
     15 N          61.3110   10.8150  119.2740 N.am      6 SEP1        0.0000 
     16 N          65.8570   12.5020  116.7400 N.am      6 SEP1        0.0000 
     17 N          61.7780   14.2170  115.9500 N.am      6 SEP1        0.0000 
     18 N          65.0800   12.5190  122.5430 N.am      6 SEP1        0.0000 
     19 N          63.1450   12.5540  124.7230 N.am      6 SEP1        0.0000 
     20 N          56.6400    7.7770  127.5870 N.am      6 SEP1        0.0000 
     21 O          53.7930    6.0320  124.0960 O.2       7 ALP2        0.0000 
     22 O          51.8080    6.9760  124.4460 O.2       7 ALP2        0.0000 
     23 O          50.2590   11.5490  123.7190 O.2       7 ALP2        0.0000 
     24 O          51.1690   11.5660  121.7360 O.2       7 ALP2        0.0000 
     25 NZ         65.8570   12.5020  116.7400 N.4       8 LYP3        0.0000 
     26 CA         59.3810   14.8740  115.9070 C.3       9 GLP5        0.0000 
     27 CA         55.6720   14.3260  116.5030 C.3       9 GLP5        0.0000 
     28 CA         60.0400   13.4960  125.1710 C.3       9 GLP5        0.0000 
     29 CA         56.0850   12.1920  126.4370 C.3       9 GLP5        0.0000 
     30 CA         58.7510   16.9100  124.7780 C.3       9 GLP5        0.0000 
     31 Zn         65.5490   15.8400  120.5260 Zn       10 ZIP7        0.0000 
     32 N          63.6210   11.6475  119.6615 N.am     11 SEC1        0.0000 
     33 N          62.4125   11.6840  118.9315 N.am     11 SEC1        0.0000 
     34 N          64.6855   12.5275  117.6645 N.am     11 SEC1        0.0000 
     35 N          62.4710   14.6190  117.0525 N.am     11 SEC1        0.0000 
     36 N          64.7105   13.3815  121.3725 N.am     11 SEC1        0.0000 
     37 N          62.5275   13.0615  123.6015 N.am     11 SEC1        0.0000 
     38 N          56.7240    7.6510  125.9045 N.am     11 SEC1        0.0000 
     39 O          54.3430    7.2765  123.8930 O.2      12 ALC2        0.0000 
     40 O          52.3035    8.1805  123.8270 O.2      12 ALC2        0.0000 
     41 O          51.5290   10.4670  123.4635 O.2      12 ALC2        0.0000 
     42 O          51.9840   10.4755  122.4720 O.2      12 ALC2        0.0000 
     43 NZ         64.6855   12.5275  117.6645 N.4      13 LYC3        0.0000 
     44 NZ         64.5105   13.7615  117.4475 N.4      13 LYC3        0.0000 
     45 CA         59.1930   14.7080  118.0120 C.3      14 GLC5        0.0000 
     46 CA         56.5980   14.4445  118.4845 C.3      14 GLC5        0.0000 
     47 CA         58.5625   13.8900  123.9945 C.3      14 GLC5        0.0000 
     48 CA         56.5850   13.2380  124.6275 C.3      14 GLC5        0.0000 
     49 CA         57.9592   15.8603  123.5307 C.3      14 GLC5        0.0000 
     50 Zn         64.9450   15.0420  120.3640 Zn       15 ZIC7        0.0000 
@<TRIPOS>BOND
@<TRIPOS>SUBSTRUCTURE
     1 SEL1        1 GROUP        1 Z    SEL  0     ROOT SEL Z 0
     2 ALL2        6 GROUP        1 Z    ALL  0     **** ALL Z 1
     3 LYL3        8 GROUP        1 Z    LYL  0     **** LYL Z 2
     4 GLL5       10 GROUP        1 Z    GLL  0     **** GLL Z 4
     5 ZIL7       13 GROUP        1 Z    ZIL  0     **** ZIL Z 5
     6 SEP1       14 GROUP        1 Z    SEP  0     **** SEP Z 7
     7 ALP2       21 GROUP        1 Z    ALP  0     **** ALP Z 8
     8 LYP3       25 GROUP        1 Z    LYP  0     **** LYP Z 9
     9 GLP5       26 GROUP        1 Z    GLP  0     **** GLP Z 11
    10 ZIP7       31 GROUP        1 Z    ZIP  0     **** ZIP Z 12
    11 SEC1       32 GROUP        1 Z    SEC  0     **** SEC Z 14
    12 ALC2       39 GROUP        1 Z    ALC  0     **** ALC Z 15
    13 LYC3       43 GROUP        1 Z    LYC  0     **** LYC Z 16
    14 GLC5       45 GROUP        1 Z    GLC  0     **** GLC Z 18
    15 ZIC7       50 GROUP        1 Z    ZIC  0     **** ZIC Z 19
@<TRIPOS>SET

