#    Name: 18984
#    Modification time : Tue Aug  8 22:20:05 2017

@<TRIPOS>MOLECULE
18984
   41     0     9     0     0
SMALL
NO_CHARGES


@<TRIPOS>ATOM
      1 N          12.0920   30.3380   -2.9470 N.am      1 SEL1        0.0000 
      2 O          13.5480   30.9600   -5.2290 O.2       2 ALL2        0.0000 
      3 O          12.0920   30.3380   -2.9470 O.2       2 ALL2        0.0000 
      4 CA         17.4500   39.3530   -2.9610 C.3       3 GLL5        0.0000 
      5 CA         16.9160   37.0630   -3.4350 C.3       3 GLL5        0.0000 
      6 CA         15.5940   38.2690   -1.8260 C.3       3 GLL5        0.0000 
      7 CA         12.9460   32.3030   -1.8590 C.3       3 GLL5        0.0000 
      8 CA         14.3720   32.9100   -4.1380 C.3       3 GLL5        0.0000 
      9 CA         17.7020   38.1920   -3.6580 C.3       3 GLL5        0.0000 
     10 CA         16.4070   39.3860   -2.0510 C.3       3 GLL5        0.0000 
     11 CA         13.7300   33.4560   -1.8650 C.3       3 GLL5        0.0000 
     12 N          10.1850   28.8440   -0.6880 N.am      4 SEP1        0.0000 
     13 O          11.3592   28.5065   -5.1982 O.2       5 ALP2        0.0000 
     14 CA         18.6950   43.3520   -3.2850 C.3       6 GLP5        0.0000 
     15 CA         19.1800   38.1250    0.0260 C.3       6 GLP5        0.0000 
     16 CA         11.7720   38.0240   -1.2450 C.3       6 GLP5        0.0000 
     17 CA         11.4660   33.8010    2.0640 C.3       6 GLP5        0.0000 
     18 CA         12.3800   35.2120   -7.3880 C.3       6 GLP5        0.0000 
     19 CA         20.0040   39.0490   -0.8330 C.3       6 GLP5        0.0000 
     20 CA         17.1680   38.2990   -7.4710 C.3       6 GLP5        0.0000 
     21 CA         19.2460   34.5940   -1.4510 C.3       6 GLP5        0.0000 
     22 CA         15.2100   42.0290    0.3770 C.3       6 GLP5        0.0000 
     23 CA         11.8340   37.0720   -2.4460 C.3       6 GLP5        0.0000 
     24 CA         13.9100   39.6570   -4.9430 C.3       6 GLP5        0.0000 
     25 CA         10.3470   33.7530   -3.7050 C.3       6 GLP5        0.0000 
     26 N          11.1385   29.5910   -1.8175 N.am      7 SEC1        0.0000 
     27 O          12.4536   29.7332   -5.2136 O.2       8 ALC2        0.0000 
     28 O          11.7256   29.4222   -4.0726 O.2       8 ALC2        0.0000 
     29 CA         18.0725   41.3525   -3.1230 C.3       9 GLC5        0.0000 
     30 CA         18.0480   37.5940   -1.7045 C.3       9 GLC5        0.0000 
     31 CA         13.6830   38.1465   -1.5355 C.3       9 GLC5        0.0000 
     32 CA         12.2060   33.0520    0.1025 C.3       9 GLC5        0.0000 
     33 CA         13.3760   34.0610   -5.7630 C.3       9 GLC5        0.0000 
     34 CA         18.7900   38.9108   -2.0713 C.3       9 GLC5        0.0000 
     35 CA         17.2385   37.9633   -5.5088 C.3       9 GLC5        0.0000 
     36 CA         18.2775   36.1108   -2.4988 C.3       9 GLC5        0.0000 
     37 CA         17.5903   38.4763   -0.9563 C.3       9 GLC5        0.0000 
     38 CA         15.6053   40.4283   -0.7808 C.3       9 GLC5        0.0000 
     39 CA         12.9635   35.3375   -2.4435 C.3       9 GLC5        0.0000 
     40 CA         15.3318   39.0127   -3.8561 C.3       9 GLC5        0.0000 
     41 CA         11.9605   33.1607   -3.2812 C.3       9 GLC5        0.0000 
@<TRIPOS>BOND
@<TRIPOS>SUBSTRUCTURE
     1 SEL1        1 GROUP        1 Z    SEL  0     ROOT SEL Z 0
     2 ALL2        2 GROUP        1 Z    ALL  0     **** ALL Z 1
     3 GLL5        4 GROUP        1 Z    GLL  0     **** GLL Z 4
     4 SEP1       12 GROUP        1 Z    SEP  0     **** SEP Z 7
     5 ALP2       13 GROUP        1 Z    ALP  0     **** ALP Z 8
     6 GLP5       14 GROUP        1 Z    GLP  0     **** GLP Z 11
     7 SEC1       26 GROUP        1 Z    SEC  0     **** SEC Z 14
     8 ALC2       27 GROUP        1 Z    ALC  0     **** ALC Z 15
     9 GLC5       29 GROUP        1 Z    GLC  0     **** GLC Z 18
@<TRIPOS>SET

