2uxh_QUE_1_ligand
  -OEChem-08111718373D

 30 32  0     0  0  0  0  0  0999 V2000
   13.7700   34.0548   -1.0651 H   0  0  0  0  0  0  0  0  0  0  0  0
   12.4250   32.0710   -1.0376 H   0  0  0  0  0  0  0  0  0  0  0  0
   14.8854   33.1460   -4.9631 H   0  0  0  0  0  0  0  0  0  0  0  0
   14.8453   38.3152   -1.1647 H   0  0  0  0  0  0  0  0  0  0  0  0
   18.0150   40.1644   -3.1108 H   0  0  0  0  0  0  0  0  0  0  0  0
   12.0411   29.7400   -3.7469 H   0  0  0  0  0  0  0  0  0  0  0  0
   12.9841   30.1342   -5.2207 H   0  0  0  0  0  0  0  0  0  0  0  0
   16.8050   41.3347   -1.5848 H   0  0  0  0  0  0  0  0  0  0  0  0
   13.7300   33.4560   -1.8650 C   0  0  0  0  0  0  0  0  0  0  0  0
   12.9460   32.3030   -1.8590 C   0  0  0  0  0  0  0  0  0  0  0  0
   14.3720   32.9100   -4.1380 C   0  0  0  0  0  0  0  0  0  0  0  0
   15.5940   38.2690   -1.8260 C   0  0  0  0  0  0  0  0  0  0  0  0
   17.4500   39.3530   -2.9610 C   0  0  0  0  0  0  0  0  0  0  0  0
   16.9160   37.0630   -3.4350 C   0  0  0  0  0  0  0  0  0  0  0  0
   14.4560   33.7500   -3.0170 C   0  0  0  0  0  0  0  0  0  0  0  0
   17.1640   35.9230   -4.1770 C   0  0  0  0  0  0  0  0  0  0  0  0
   15.8370   37.0910   -2.5320 C   0  0  0  0  0  0  0  0  0  0  0  0
   12.8710   31.4590   -2.9810 C   0  0  0  0  0  0  0  0  0  0  0  0
   13.5960   31.7620   -4.1310 C   0  0  0  0  0  0  0  0  0  0  0  0
   16.4070   39.3860   -2.0510 C   0  0  0  0  0  0  0  0  0  0  0  0
   17.7020   38.1920   -3.6580 C   0  0  0  0  0  0  0  0  0  0  0  0
   16.3190   34.8390   -4.0310 C   0  0  0  0  0  0  0  0  0  0  0  0
   15.2630   34.8830   -3.1070 C   0  0  0  0  0  0  0  0  0  0  0  0
   18.0820   35.8870   -4.9940 O   0  0  0  0  0  0  0  0  0  0  0  0
   15.0210   35.9950   -2.3200 O   0  0  0  0  0  0  0  0  0  0  0  0
   12.0920   30.3380   -2.9470 O   0  0  0  0  0  0  0  0  0  0  0  0
   13.5480   30.9600   -5.2290 O   0  0  0  0  0  0  0  0  0  0  0  0
   16.2110   40.5520   -1.3990 O   0  0  0  0  0  0  0  0  0  0  0  0
   18.7320   38.1800   -4.5390 O   0  5  0  0  0  0  0  0  0  0  0  0
   16.5470   33.7290   -4.7900 O   0  5  0  0  0  0  0  0  0  0  0  0
  1  9  1  0  0  0  0
  2 10  1  0  0  0  0
  3 11  1  0  0  0  0
  4 12  1  0  0  0  0
  5 13  1  0  0  0  0
  6 26  1  0  0  0  0
  7 27  1  0  0  0  0
  8 28  1  0  0  0  0
  9 10  1  0  0  0  0
  9 15  2  0  0  0  0
 10 18  2  0  0  0  0
 11 15  1  0  0  0  0
 11 19  2  0  0  0  0
 12 17  1  0  0  0  0
 12 20  2  0  0  0  0
 13 20  1  0  0  0  0
 13 21  2  0  0  0  0
 14 16  1  0  0  0  0
 14 17  2  0  0  0  0
 14 21  1  0  0  0  0
 15 23  1  0  0  0  0
 16 22  1  0  0  0  0
 16 24  2  0  0  0  0
 17 25  1  0  0  0  0
 18 19  1  0  0  0  0
 18 26  1  0  0  0  0
 19 27  1  0  0  0  0
 20 28  1  0  0  0  0
 21 29  1  0  0  0  0
 22 23  2  0  0  0  0
 22 30  1  0  0  0  0
 23 25  1  0  0  0  0
M  CHG  2  30  -1  29  -1
M  END
> <scpdb_id>
2uxh_1

$$$$
