@<TRIPOS>MOLECULE
2uxh_QUE_1_ligand
   32    34     1     0     0
SMALL
NO_CHARGES


@<TRIPOS>ATOM
     1 C1          17.4500    39.3530    -2.9610 C.ar         1 QUE1211   0.0000
     2 C2          17.7020    38.1920    -3.6580 C.ar         1 QUE1211   0.0000
     3 C3          16.9160    37.0630    -3.4350 C.ar         1 QUE1211   0.0000
     4 C4          15.8370    37.0910    -2.5320 C.ar         1 QUE1211   0.0000
     5 C5          15.5940    38.2690    -1.8260 C.ar         1 QUE1211   0.0000
     6 C6          16.4070    39.3860    -2.0510 C.ar         1 QUE1211   0.0000
     7 C9          17.1640    35.9230    -4.1770 C.2          1 QUE1211   0.0000
     8 C10         16.3190    34.8390    -4.0310 C.2          1 QUE1211   0.0000
     9 C11         15.2630    34.8830    -3.1070 C.2          1 QUE1211   0.0000
    10 C14         14.4560    33.7500    -3.0170 C.ar         1 QUE1211   0.0000
    11 C15         13.7300    33.4560    -1.8650 C.ar         1 QUE1211   0.0000
    12 C16         12.9460    32.3030    -1.8590 C.ar         1 QUE1211   0.0000
    13 C17         12.8710    31.4590    -2.9810 C.ar         1 QUE1211   0.0000
    14 C18         13.5960    31.7620    -4.1310 C.ar         1 QUE1211   0.0000
    15 C19         14.3720    32.9100    -4.1380 C.ar         1 QUE1211   0.0000
    16 O12         15.0210    35.9950    -2.3200 O.2          1 QUE1211   0.0000
    17 O13         18.0820    35.8870    -4.9940 O.2          1 QUE1211   0.0000
    18 O23         13.5480    30.9600    -5.2290 O.3          1 QUE1211   0.0000
    19 O24         12.0920    30.3380    -2.9470 O.3          1 QUE1211   0.0000
    20 O27         16.5470    33.7290    -4.7900 O.3          1 QUE1211   0.0000
    21 O29         16.2110    40.5520    -1.3990 O.3          1 QUE1211   0.0000
    22 O30         18.7320    38.1800    -4.5390 O.3          1 QUE1211   0.0000
    23 H1          18.0150    40.1644    -3.1108 H            1 QUE1211   0.0000
    24 H2          14.8453    38.3152    -1.1647 H            1 QUE1211   0.0000
    25 H3          13.7700    34.0548    -1.0651 H            1 QUE1211   0.0000
    26 H4          12.4250    32.0710    -1.0376 H            1 QUE1211   0.0000
    27 H5          14.8854    33.1460    -4.9631 H            1 QUE1211   0.0000
    28 H6          12.9841    30.1342    -5.2207 H            1 QUE1211   0.0000
    29 H7          12.0411    29.7400    -3.7469 H            1 QUE1211   0.0000
    30 H8          17.3117    33.7122    -5.4341 H            1 QUE1211   0.0000
    31 H9          16.8050    41.3347    -1.5848 H            1 QUE1211   0.0000
    32 H10         18.9364    37.3500    -5.0579 H            1 QUE1211   0.0000
@<TRIPOS>BOND
     1    1    2      ar
     2    1    6      ar
     3    2    3      ar
     4    2   22       1
     5    3    4      ar
     6    3    7       1
     7    4    5      ar
     8    4   16       1
     9    5    6      ar
    10    6   21       1
    11    7    8       1
    12    7   17       2
    13    8    9       2
    14    8   20       1
    15    9   10       1
    16    9   16       1
    17   10   11      ar
    18   10   15      ar
    19   11   12      ar
    20   12   13      ar
    21   13   14      ar
    22   13   19       1
    23   14   15      ar
    24   14   18       1
    25    1   23       1
    26    5   24       1
    27   11   25       1
    28   12   26       1
    29   15   27       1
    30   18   28       1
    31   19   29       1
    32   20   30       1
    33   21   31       1
    34   22   32       1
@<TRIPOS>SUBSTRUCTURE
     1 QUE1211     1 GROUP             4 A     QUE     0 **** QUE A1211
