#    Name: 18775
#    Modification time : Tue Aug  8 21:34:58 2017

@<TRIPOS>MOLECULE
18775
   37     0     9     0     0
SMALL
NO_CHARGES


@<TRIPOS>ATOM
      1 N          23.2960   12.4000   -2.5840 N.am      1 SEL1        0.0000 
      2 N          24.5840   10.7160   -2.5230 N.am      1 SEL1        0.0000 
      3 N          19.8250    6.7110    3.2000 N.am      1 SEL1        0.0000 
      4 N          19.2290    3.1250    2.4810 N.am      1 SEL1        0.0000 
      5 O          23.4400    9.4400   -0.4290 O.2       2 ALL2        0.0000 
      6 O          19.4190    4.0990    4.6150 O.2       2 ALL2        0.0000 
      7 CA         22.6850   11.7070    0.2940 C.3       3 GLL5        0.0000 
      8 CA         18.8660   10.7410    0.3390 C.3       3 GLL5        0.0000 
      9 CA         17.8330    8.5760   -0.6170 C.3       3 GLL5        0.0000 
     10 CA         19.9930   12.1010   -0.0840 C.3       3 GLL5        0.0000 
     11 CA         18.5450    7.3130   -1.0550 C.3       3 GLL5        0.0000 
     12 N          21.1950   14.0610   -3.4410 N.am      4 SEP1        0.0000 
     13 N          26.9480    9.3340   -1.6220 N.am      4 SEP1        0.0000 
     14 N          19.9810    8.0870    5.8240 N.am      4 SEP1        0.0000 
     15 N          19.1460    0.4210    3.4370 N.am      4 SEP1        0.0000 
     16 O          25.8910    9.9710    0.8200 O.2       5 ALP2        0.0000 
     17 O          22.8196    8.7731    2.2776 O.2       5 ALP2        0.0000 
     18 O          20.1710    5.4970    7.0110 O.2       5 ALP2        0.0000 
     19 CA         25.7330   14.6730   -0.5740 C.3       6 GLP5        0.0000 
     20 CA         17.0060   10.0650    3.7430 C.3       6 GLP5        0.0000 
     21 CA         14.4490    9.1520    1.1490 C.3       6 GLP5        0.0000 
     22 CA         20.4110   15.1970   -1.4620 C.3       6 GLP5        0.0000 
     23 CA         16.2970   12.5510   -2.7210 C.3       6 GLP5        0.0000 
     24 CA         15.4080    5.6950   -1.5350 C.3       6 GLP5        0.0000 
     25 N          22.2455   13.2305   -3.0125 N.am      7 SEC1        0.0000 
     26 N          25.7660   10.0250   -2.0725 N.am      7 SEC1        0.0000 
     27 N          19.9030    7.3990    4.5120 N.am      7 SEC1        0.0000 
     28 N          19.1875    1.7730    2.9590 N.am      7 SEC1        0.0000 
     29 O          24.6655    9.7055    0.1955 O.2       8 ALC2        0.0000 
     30 O          23.1298    9.1065    0.9243 O.2       8 ALC2        0.0000 
     31 O          19.7950    4.7980    5.8130 O.2       8 ALC2        0.0000 
     32 CA         24.2090   13.1900   -0.1400 C.3       9 GLC5        0.0000 
     33 CA         17.9360   10.4030    2.0410 C.3       9 GLC5        0.0000 
     34 CA         16.1410    8.8640    0.2660 C.3       9 GLC5        0.0000 
     35 CA         20.5395   13.5152   -0.5012 C.3       9 GLC5        0.0000 
     36 CA         17.6062   11.3618   -1.4428 C.3       9 GLC5        0.0000 
     37 CA         16.7985    6.8197   -1.1855 C.3       9 GLC5        0.0000 
@<TRIPOS>BOND
@<TRIPOS>SUBSTRUCTURE
     1 SEL1        1 GROUP        1 Z    SEL  0     ROOT SEL Z 0
     2 ALL2        5 GROUP        1 Z    ALL  0     **** ALL Z 1
     3 GLL5        7 GROUP        1 Z    GLL  0     **** GLL Z 4
     4 SEP1       12 GROUP        1 Z    SEP  0     **** SEP Z 7
     5 ALP2       16 GROUP        1 Z    ALP  0     **** ALP Z 8
     6 GLP5       19 GROUP        1 Z    GLP  0     **** GLP Z 11
     7 SEC1       25 GROUP        1 Z    SEC  0     **** SEC Z 14
     8 ALC2       29 GROUP        1 Z    ALC  0     **** ALC Z 15
     9 GLC5       32 GROUP        1 Z    GLC  0     **** GLC Z 18
@<TRIPOS>SET

