#    Name: 8750
#    Modification time : Tue Aug  8 22:56:07 2017

@<TRIPOS>MOLECULE
8750
   62     0    15     0     0
SMALL
NO_CHARGES


@<TRIPOS>ATOM
      1 N          27.7380   45.7190   58.2000 N.am      1 SEL1        0.0000 
      2 N          29.8030   47.1330   58.2880 N.am      1 SEL1        0.0000 
      3 N          32.0180   45.5280   59.8740 N.am      1 SEL1        0.0000 
      4 N          31.2850   43.0890   60.2770 N.am      1 SEL1        0.0000 
      5 N          29.6520   44.9210   59.6740 N.am      1 SEL1        0.0000 
      6 N          32.7870   44.7910   63.1810 N.am      1 SEL1        0.0000 
      7 N          32.3910   39.6890   68.2670 N.am      1 SEL1        0.0000 
      8 O          29.4980   45.4900   69.4530 O.2       2 ALL2        0.0000 
      9 O          32.5800   38.9290   66.0510 O.2       2 ALL2        0.0000 
     10 NZ         29.8030   47.1330   58.2880 N.4       3 LYL3        0.0000 
     11 NZ         32.0180   45.5280   59.8740 N.4       3 LYL3        0.0000 
     12 NZ         31.2850   43.0890   60.2770 N.4       3 LYL3        0.0000 
     13 CA         29.2210   46.0560   66.2490 C.3       4 GLL5        0.0000 
     14 CA         29.2700   44.0320   67.5570 C.3       4 GLL5        0.0000 
     15 CA         30.4030   46.1540   67.2290 C.3       4 GLL5        0.0000 
     16 Zn         29.8030   47.1330   58.2880 Zn        5 ZIL7        0.0000 
     17 Zn         32.0180   45.5280   59.8740 Zn        5 ZIL7        0.0000 
     18 N          27.8410   46.4570   61.0050 N.am      6 SEP1        0.0000 
     19 N          29.5440   47.8670   55.8740 N.am      6 SEP1        0.0000 
     20 N          35.0560   45.0080   60.6900 N.am      6 SEP1        0.0000 
     21 N          32.0840   41.3880   62.9250 N.am      6 SEP1        0.0000 
     22 N          34.2740   42.2300   61.2530 N.am      6 SEP1        0.0000 
     23 N          29.6590   40.9980   61.8360 N.am      6 SEP1        0.0000 
     24 N          31.8550   42.5110   57.8620 N.am      6 SEP1        0.0000 
     25 N          27.6930   42.7360   60.3090 N.am      6 SEP1        0.0000 
     26 N          34.0010   45.2170   65.5290 N.am      6 SEP1        0.0000 
     27 N          35.6810   45.5600   63.3100 N.am      6 SEP1        0.0000 
     28 N          33.9890   37.5010   69.1600 N.am      6 SEP1        0.0000 
     29 O          28.9760   47.9680   70.1530 O.2       7 ALP2        0.0000 
     30 O          32.5200   35.8760   66.9110 O.2       7 ALP2        0.0000 
     31 O          32.4510   39.1940   63.2690 O.2       7 ALP2        0.0000 
     32 NZ         28.7400   48.4880   55.0310 N.4       8 LYP3        0.0000 
     33 NZ         31.8550   42.5110   57.8620 N.4       8 LYP3        0.0000 
     34 CA         26.1900   47.6480   68.7230 C.3       9 GLP5        0.0000 
     35 CA         27.7830   39.9230   68.0660 C.3       9 GLP5        0.0000 
     36 CA         25.6890   45.8170   64.7760 C.3       9 GLP5        0.0000 
     37 CA         32.3050   47.9920   70.5640 C.3       9 GLP5        0.0000 
     38 Zn         31.9070   47.4220   58.9510 Zn       10 ZIP7        0.0000 
     39 N          27.7895   46.0880   59.6025 N.am     11 SEC1        0.0000 
     40 N          28.8220   46.7950   59.6465 N.am     11 SEC1        0.0000 
     41 N          29.6735   47.5000   57.0810 N.am     11 SEC1        0.0000 
     42 N          33.5370   45.2680   60.2820 N.am     11 SEC1        0.0000 
     43 N          31.6845   42.2385   61.6010 N.am     11 SEC1        0.0000 
     44 N          32.7795   42.6595   60.7650 N.am     11 SEC1        0.0000 
     45 N          30.4720   42.0435   61.0565 N.am     11 SEC1        0.0000 
     46 N          31.5700   42.8000   59.0695 N.am     11 SEC1        0.0000 
     47 N          28.6725   43.8285   59.9915 N.am     11 SEC1        0.0000 
     48 N          33.3940   45.0040   64.3550 N.am     11 SEC1        0.0000 
     49 N          34.2340   45.1755   63.2455 N.am     11 SEC1        0.0000 
     50 N          33.1900   38.5950   68.7135 N.am     11 SEC1        0.0000 
     51 O          29.2370   46.7290   69.8030 O.2      12 ALC2        0.0000 
     52 O          32.5500   37.4025   66.4810 O.2      12 ALC2        0.0000 
     53 O          32.5155   39.0615   64.6600 O.2      12 ALC2        0.0000 
     54 NZ         29.2715   47.8105   56.6595 N.4      13 LYC3        0.0000 
     55 NZ         31.9365   44.0195   58.8680 N.4      13 LYC3        0.0000 
     56 NZ         31.5700   42.8000   59.0695 N.4      13 LYC3        0.0000 
     57 CA         27.7055   46.8520   67.4860 C.3      14 GLC5        0.0000 
     58 CA         28.5265   41.9775   67.8115 C.3      14 GLC5        0.0000 
     59 CA         27.5512   45.9832   65.1440 C.3      14 GLC5        0.0000 
     60 CA         31.2828   46.7957   69.1550 C.3      14 GLC5        0.0000 
     61 Zn         30.8550   47.2775   58.6195 Zn       15 ZIC7        0.0000 
     62 Zn         31.9625   46.4750   59.4125 Zn       15 ZIC7        0.0000 
@<TRIPOS>BOND
@<TRIPOS>SUBSTRUCTURE
     1 SEL1        1 GROUP        1 Z    SEL  0     ROOT SEL Z 0
     2 ALL2        8 GROUP        1 Z    ALL  0     **** ALL Z 1
     3 LYL3       10 GROUP        1 Z    LYL  0     **** LYL Z 2
     4 GLL5       13 GROUP        1 Z    GLL  0     **** GLL Z 4
     5 ZIL7       16 GROUP        1 Z    ZIL  0     **** ZIL Z 5
     6 SEP1       18 GROUP        1 Z    SEP  0     **** SEP Z 7
     7 ALP2       29 GROUP        1 Z    ALP  0     **** ALP Z 8
     8 LYP3       32 GROUP        1 Z    LYP  0     **** LYP Z 9
     9 GLP5       34 GROUP        1 Z    GLP  0     **** GLP Z 11
    10 ZIP7       38 GROUP        1 Z    ZIP  0     **** ZIP Z 12
    11 SEC1       39 GROUP        1 Z    SEC  0     **** SEC Z 14
    12 ALC2       51 GROUP        1 Z    ALC  0     **** ALC Z 15
    13 LYC3       54 GROUP        1 Z    LYC  0     **** LYC Z 16
    14 GLC5       57 GROUP        1 Z    GLC  0     **** GLC Z 18
    15 ZIC7       61 GROUP        1 Z    ZIC  0     **** ZIC Z 19
@<TRIPOS>SET

