1sxj_AGS_1_ligand
  -OEChem-08111718373D

 45 47  0     1  0  0  0  0  0999 V2000
   32.1623   40.4254   70.1408 H   0  0  0  0  0  0  0  0  0  0  0  0
   29.5829   43.0257   65.0198 H   0  0  0  0  0  0  0  0  0  0  0  0
   31.2338   45.9028   66.7323 H   0  0  0  0  0  0  0  0  0  0  0  0
   30.9863   44.6122   68.5053 H   0  0  0  0  0  0  0  0  0  0  0  0
   28.5098   46.7114   66.5032 H   0  0  0  0  0  0  0  0  0  0  0  0
   28.5305   43.7361   68.1616 H   0  0  0  0  0  0  0  0  0  0  0  0
   28.7753   46.2178   64.2189 H   0  0  0  0  0  0  0  0  0  0  0  0
   30.0518   47.1318   64.6683 H   0  0  0  0  0  0  0  0  0  0  0  0
   33.1528   38.1756   66.3738 H   0  0  0  0  0  0  0  0  0  0  0  0
   32.3719   39.0171   65.0769 H   0  0  0  0  0  0  0  0  0  0  0  0
   31.3750   47.4609   68.3937 H   0  0  0  0  0  0  0  0  0  0  0  0
   29.3529   46.4782   69.4038 H   0  0  0  0  0  0  0  0  0  0  0  0
   31.9030   40.5890   69.1890 C   0  0  0  0  0  0  0  0  0  0  0  0
   30.0630   42.4780   65.7050 C   0  0  0  0  0  0  0  0  0  0  0  0
   31.2470   40.9570   66.5680 C   0  0  0  0  0  0  0  0  0  0  0  0
   30.8090   41.8140   67.6320 C   0  0  0  0  0  0  0  0  0  0  0  0
   32.0850   39.8320   66.9350 C   0  0  0  0  0  0  0  0  0  0  0  0
   30.4030   46.1540   67.2290 C   0  0  1  0  0  0  0  0  0  0  0  0
   30.1180   45.0450   68.2630 C   0  0  2  0  0  0  0  0  0  0  0  0
   29.2210   46.0560   66.2490 C   0  0  1  0  0  0  0  0  0  0  0  0
   29.2700   44.0320   67.5570 C   0  0  2  0  0  0  0  0  0  0  0  0
   29.6060   46.2430   64.7750 C   0  0  1  0  0  0  0  0  0  0  0  0
   31.1140   41.6700   68.9650 N   0  0  0  0  0  0  0  0  0  0  0  0
   32.3910   39.6890   68.2670 N   0  0  0  0  0  0  0  0  0  0  0  0
   30.7590   41.3980   65.3740 N   0  0  0  0  0  0  0  0  0  0  0  0
   30.0370   42.8060   67.0490 N   0  0  0  0  0  0  0  0  0  0  0  0
   32.5800   38.9290   66.0510 N   0  0  0  0  0  0  0  0  0  0  0  0
   27.7380   45.7190   58.2000 O   0  0  0  0  0  0  0  0  0  0  0  0
   29.8030   47.1330   58.2880 O   0  0  0  0  0  0  0  0  0  0  0  0
   32.7870   44.7910   63.1810 O   0  5  0  0  0  0  0  0  0  0  0  0
   31.2850   43.0890   60.2770 O   0  5  0  0  0  0  0  0  0  0  0  0
   31.6940   47.0540   62.8760 O   0  0  0  0  0  0  0  0  0  0  0  0
   32.0180   45.5280   59.8740 O   0  0  0  0  0  0  0  0  0  0  0  0
   28.7150   44.6750   66.4010 O   0  0  0  0  0  0  0  0  0  0  0  0
   30.5950   47.4680   67.7680 O   0  0  0  0  0  0  0  0  0  0  0  0
   29.4980   45.4900   69.4530 O   0  0  0  0  0  0  0  0  0  0  0  0
   30.5150   45.2020   64.3100 O   0  0  0  0  0  0  0  0  0  0  0  0
   29.6520   44.9210   59.6740 O   0  0  0  0  0  0  0  0  0  0  0  0
   30.6790   44.9160   61.8790 O   0  0  0  0  0  0  0  0  0  0  0  0
   29.2400   45.6850   58.2950 P   0  0  0  0  0  0  0  0  0  0  0  0
   31.5090   45.5740   63.0820 P   0  0  2  0  0  0  0  0  0  0  0  0
   31.0080   44.5540   60.3780 P   0  0  1  0  0  0  0  0  0  0  0  0
   29.9720   44.8030   57.0300 S   0  0  0  0  0  0  0  0  0  0  0  0
   27.4576   45.2317   57.4342 H   0  0  0  0  0  0  0  0  0  0  0  0
   30.4343   47.2244   57.5840 H   0  0  0  0  0  0  0  0  0  0  0  0
  1 13  1  0  0  0  0
  2 14  1  0  0  0  0
  3 18  1  0  0  0  0
  4 19  1  0  0  0  0
  5 20  1  0  0  0  0
  6 21  1  0  0  0  0
  7 22  1  0  0  0  0
  8 22  1  0  0  0  0
  9 27  1  0  0  0  0
 10 27  1  0  0  0  0
 11 35  1  0  0  0  0
 12 36  1  0  0  0  0
 13 23  1  0  0  0  0
 13 24  2  0  0  0  0
 14 25  2  0  0  0  0
 14 26  1  0  0  0  0
 15 16  1  0  0  0  0
 15 17  2  0  0  0  0
 15 25  1  0  0  0  0
 16 23  2  0  0  0  0
 16 26  1  0  0  0  0
 17 24  1  0  0  0  0
 17 27  1  0  0  0  0
 18 19  1  0  0  0  0
 18 20  1  0  0  0  0
 18 35  1  0  0  0  0
 19 21  1  0  0  0  0
 19 36  1  0  0  0  0
 20 22  1  0  0  0  0
 20 34  1  0  0  0  0
 21 26  1  0  0  0  0
 21 34  1  0  0  0  0
 22 37  1  0  0  0  0
 28 40  1  0  0  0  0
 29 40  1  0  0  0  0
 30 41  1  0  0  0  0
 31 42  1  0  0  0  0
 32 41  2  0  0  0  0
 33 42  2  0  0  0  0
 37 41  1  0  0  0  0
 38 40  1  0  0  0  0
 38 42  1  0  0  0  0
 39 41  1  0  0  0  0
 39 42  1  0  0  0  0
 40 43  2  0  0  0  0
 28 44  1  0  0  0  0
 29 45  1  0  0  0  0
M  CHG  2  31  -1  30  -1
M  END
> <scpdb_id>
1sxj_1

$$$$
