3vkx_T3_1_ligand
  -OEChem-08111718373D

 35 36  0     1  0  0  0  0  0999 V2000
  -16.0904    6.0944   34.8907 H   0  0  0  0  0  0  0  0  0  0  0  0
  -15.2352    5.2164   32.8350 H   0  0  0  0  0  0  0  0  0  0  0  0
  -21.5689    3.3803   37.8688 H   0  0  0  0  0  0  0  0  0  0  0  0
  -18.3033    1.8911   39.9526 H   0  0  0  0  0  0  0  0  0  0  0  0
  -17.6931    2.3967   35.8847 H   0  0  0  0  0  0  0  0  0  0  0  0
  -20.3533    1.1076   40.3898 H   0  0  0  0  0  0  0  0  0  0  0  0
  -21.4481    1.1243   39.1784 H   0  0  0  0  0  0  0  0  0  0  0  0
  -22.5275    2.9736   40.2094 H   0  0  0  0  0  0  0  0  0  0  0  0
  -21.7430    3.1537   42.5824 H   0  0  0  0  0  0  0  0  0  0  0  0
  -21.0453    4.0460   41.4061 H   0  0  0  0  0  0  0  0  0  0  0  0
  -14.9569    3.3472   31.3473 H   0  0  0  0  0  0  0  0  0  0  0  0
  -16.2420    5.1330   34.6610 C   0  0  0  0  0  0  0  0  0  0  0  0
  -15.7400    4.6210   33.4600 C   0  0  0  0  0  0  0  0  0  0  0  0
  -20.5800    3.3930   38.0170 C   0  0  0  0  0  0  0  0  0  0  0  0
  -18.6600    2.5010   39.2450 C   0  0  0  0  0  0  0  0  0  0  0  0
  -17.1790    2.9670   35.2440 C   0  0  0  0  0  0  0  0  0  0  0  0
  -20.0350    2.5880   39.0220 C   0  0  0  0  0  0  0  0  0  0  0  0
  -16.9490    4.3200   35.5380 C   0  0  0  0  0  0  0  0  0  0  0  0
  -15.9420    3.2890   33.1360 C   0  0  0  0  0  0  0  0  0  0  0  0
  -18.3170    4.1590   37.4250 C   0  0  0  0  0  0  0  0  0  0  0  0
  -19.7850    4.2150   37.2130 C   0  0  0  0  0  0  0  0  0  0  0  0
  -17.7940    3.2620   38.4830 C   0  0  0  0  0  0  0  0  0  0  0  0
  -16.6930    2.4200   34.0640 C   0  0  0  0  0  0  0  0  0  0  0  0
  -22.7470    1.2380   41.3380 C   0  0  0  0  0  0  0  0  0  0  0  0
  -20.9350    1.6910   39.8230 C   0  0  2  0  0  0  0  0  0  0  0  0
  -21.9350    2.3640   40.7360 C   0  0  2  0  0  0  0  0  0  0  0  0
  -21.2070    3.1170   41.7390 N   0  3  0  0  0  0  0  0  0  0  0  0
  -23.1090    1.3130   42.5390 O   0  5  0  0  0  0  0  0  0  0  0  0
  -23.0030    0.2440   40.6060 O   0  0  0  0  0  0  0  0  0  0  0  0
  -15.4670    2.7690   31.9840 O   0  0  0  0  0  0  0  0  0  0  0  0
  -17.4190    4.8830   36.6870 O   0  0  0  0  0  0  0  0  0  0  0  0
  -20.7270    5.3970   35.7300 I   0  0  0  0  0  0  0  0  0  0  0  0
  -15.7470    3.1350   38.8180 I   0  0  0  0  0  0  0  0  0  0  0  0
  -17.0080    0.4100   33.5540 I   0  0  0  0  0  0  0  0  0  0  0  0
  -20.3307    2.6706   41.9201 H   0  0  0  0  0  0  0  0  0  0  0  0
  1 12  1  0  0  0  0
  2 13  1  0  0  0  0
  3 14  1  0  0  0  0
  4 15  1  0  0  0  0
  5 16  1  0  0  0  0
  6 25  1  0  0  0  0
  7 25  1  0  0  0  0
  8 26  1  0  0  0  0
  9 27  1  0  0  0  0
 10 27  1  0  0  0  0
 11 30  1  0  0  0  0
 12 13  2  0  0  0  0
 12 18  1  0  0  0  0
 13 19  1  0  0  0  0
 14 17  2  0  0  0  0
 14 21  1  0  0  0  0
 15 17  1  0  0  0  0
 15 22  2  0  0  0  0
 16 18  2  0  0  0  0
 16 23  1  0  0  0  0
 17 25  1  0  0  0  0
 18 31  1  0  0  0  0
 19 23  2  0  0  0  0
 19 30  1  0  0  0  0
 20 21  2  0  0  0  0
 20 22  1  0  0  0  0
 20 31  1  0  0  0  0
 21 32  1  0  0  0  0
 22 33  1  0  0  0  0
 23 34  1  0  0  0  0
 24 26  1  0  0  0  0
 24 28  1  0  0  0  0
 24 29  2  0  0  0  0
 25 26  1  0  0  0  0
 26 27  1  0  0  0  0
 27 35  1  0  0  0  0
M  CHG  2  27   1  28  -1
M  END
> <scpdb_id>
3vkx_1

$$$$
