2j7y_E3O_1_ligand
  -OEChem-08111718373D

 45 48  0     1  0  0  0  0  0999 V2000
   51.4170   34.0647   76.1075 H   0  0  0  0  0  0  0  0  0  0  0  0
   52.6161   35.1729   77.8188 H   0  0  0  0  0  0  0  0  0  0  0  0
   51.1947   32.5587   80.7010 H   0  0  0  0  0  0  0  0  0  0  0  0
   50.2736   30.1746   79.3755 H   0  0  0  0  0  0  0  0  0  0  0  0
   49.1509   31.1737   80.0143 H   0  0  0  0  0  0  0  0  0  0  0  0
   48.3017   29.6572   78.2985 H   0  0  0  0  0  0  0  0  0  0  0  0
   47.9532   31.2324   78.0459 H   0  0  0  0  0  0  0  0  0  0  0  0
   51.2822   31.3780   74.9477 H   0  0  0  0  0  0  0  0  0  0  0  0
   50.6290   32.8424   74.6387 H   0  0  0  0  0  0  0  0  0  0  0  0
   50.0629   31.2199   72.9518 H   0  0  0  0  0  0  0  0  0  0  0  0
   48.7339   31.8363   73.6732 H   0  0  0  0  0  0  0  0  0  0  0  0
   48.5927   27.8835   76.1451 H   0  0  0  0  0  0  0  0  0  0  0  0
   47.0890   28.4850   76.3542 H   0  0  0  0  0  0  0  0  0  0  0  0
   48.9401   32.4300   76.1830 H   0  0  0  0  0  0  0  0  0  0  0  0
   50.1600   29.9056   76.7942 H   0  0  0  0  0  0  0  0  0  0  0  0
   47.6652   30.5395   75.5193 H   0  0  0  0  0  0  0  0  0  0  0  0
   47.9588   27.2001   74.1232 H   0  0  0  0  0  0  0  0  0  0  0  0
   48.5164   28.7579   72.5962 H   0  0  0  0  0  0  0  0  0  0  0  0
   50.1205   28.0506   74.6116 H   0  0  0  0  0  0  0  0  0  0  0  0
   50.7990   28.9178   73.4056 H   0  0  0  0  0  0  0  0  0  0  0  0
   51.0476   29.3488   74.9610 H   0  0  0  0  0  0  0  0  0  0  0  0
   52.6279   34.3715   81.2977 H   0  0  0  0  0  0  0  0  0  0  0  0
   45.8830   27.2986   73.5201 H   0  0  0  0  0  0  0  0  0  0  0  0
   46.1849   29.7572   73.3653 H   0  0  0  0  0  0  0  0  0  0  0  0
   51.3660   33.7260   77.0470 C   0  0  0  0  0  0  0  0  0  0  0  0
   52.0590   34.3770   78.0560 C   0  0  0  0  0  0  0  0  0  0  0  0
   51.2310   32.8500   79.7450 C   0  0  0  0  0  0  0  0  0  0  0  0
   50.6010   32.6040   77.3390 C   0  0  0  0  0  0  0  0  0  0  0  0
   50.5210   32.1570   78.7970 C   0  0  0  0  0  0  0  0  0  0  0  0
   52.0110   33.9680   79.3860 C   0  0  0  0  0  0  0  0  0  0  0  0
   49.6690   30.9490   79.1890 C   0  0  1  0  0  0  0  0  0  0  0  0
   48.6870   30.5540   78.0810 C   0  0  1  0  0  0  0  0  0  0  0  0
   50.4290   31.8970   74.8960 C   0  0  1  0  0  0  0  0  0  0  0  0
   49.5510   31.2760   73.8090 C   0  0  2  0  0  0  0  0  0  0  0  0
   47.8970   28.4930   75.7650 C   0  0  1  0  0  0  0  0  0  0  0  0
   49.7830   31.9000   76.2760 C   0  0  1  0  0  0  0  0  0  0  0  0
   49.3460   30.4820   76.7230 C   0  0  2  0  0  0  0  0  0  0  0  0
   48.4480   29.9240   75.6110 C   0  0  1  0  0  0  0  0  0  0  0  0
   47.5330   28.0790   74.3380 C   0  0  2  0  0  0  0  0  0  0  0  0
   48.0930   29.1700   73.4030 C   0  0  2  0  0  0  0  0  0  0  0  0
   49.1450   29.8680   74.2640 C   0  0  1  0  0  0  0  0  0  0  0  0
   50.3860   28.9680   74.3150 C   0  0  0  0  0  0  0  0  0  0  0  0
   52.6850   34.6570   80.3410 O   0  0  0  0  0  0  0  0  0  0  0  0
   46.1110   27.9650   74.2300 O   0  0  0  0  0  0  0  0  0  0  0  0
   47.0650   30.0820   73.0190 O   0  0  0  0  0  0  0  0  0  0  0  0
  1 25  1  0  0  0  0
  2 26  1  0  0  0  0
  3 27  1  0  0  0  0
  4 31  1  0  0  0  0
  5 31  1  0  0  0  0
  6 32  1  0  0  0  0
  7 32  1  0  0  0  0
  8 33  1  0  0  0  0
  9 33  1  0  0  0  0
 10 34  1  0  0  0  0
 11 34  1  0  0  0  0
 12 35  1  0  0  0  0
 13 35  1  0  0  0  0
 14 36  1  0  0  0  0
 15 37  1  0  0  0  0
 16 38  1  0  0  0  0
 17 39  1  0  0  0  0
 18 40  1  0  0  0  0
 19 42  1  0  0  0  0
 20 42  1  0  0  0  0
 21 42  1  0  0  0  0
 22 43  1  0  0  0  0
 23 44  1  0  0  0  0
 24 45  1  0  0  0  0
 25 26  1  0  0  0  0
 25 28  2  0  0  0  0
 26 30  2  0  0  0  0
 27 29  2  0  0  0  0
 27 30  1  0  0  0  0
 28 29  1  0  0  0  0
 28 36  1  0  0  0  0
 29 31  1  0  0  0  0
 30 43  1  0  0  0  0
 31 32  1  0  0  0  0
 32 37  1  0  0  0  0
 33 34  1  0  0  0  0
 33 36  1  0  0  0  0
 34 41  1  0  0  0  0
 35 38  1  0  0  0  0
 35 39  1  0  0  0  0
 36 37  1  0  0  0  0
 37 38  1  0  0  0  0
 38 41  1  0  0  0  0
 39 40  1  0  0  0  0
 39 44  1  0  0  0  0
 40 41  1  0  0  0  0
 40 45  1  0  0  0  0
 41 42  1  0  0  0  0
M  END
> <scpdb_id>
2j7y_1

$$$$
