1uhl_MEI_1_ligand
  -OEChem-08111718373D

 46 45  0     1  0  0  0  0  0999 V2000
   44.0135   -8.2440   30.3787 H   0  0  0  0  0  0  0  0  0  0  0  0
   41.7770   -6.5725   30.3991 H   0  0  0  0  0  0  0  0  0  0  0  0
   43.6902   -9.0378   27.5941 H   0  0  0  0  0  0  0  0  0  0  0  0
   41.2627   -7.9732   27.2347 H   0  0  0  0  0  0  0  0  0  0  0  0
   42.8688   -8.0663   26.9545 H   0  0  0  0  0  0  0  0  0  0  0  0
   42.0749   -9.3453   27.5873 H   0  0  0  0  0  0  0  0  0  0  0  0
   45.5504   -8.8137   25.7716 H   0  0  0  0  0  0  0  0  0  0  0  0
   45.3362   -7.4560   26.6534 H   0  0  0  0  0  0  0  0  0  0  0  0
   46.7556   -7.7182   25.8898 H   0  0  0  0  0  0  0  0  0  0  0  0
   47.9150  -10.7303   32.6256 H   0  0  0  0  0  0  0  0  0  0  0  0
   48.9587  -10.0308   33.6687 H   0  0  0  0  0  0  0  0  0  0  0  0
   47.4456   -9.4381   33.5069 H   0  0  0  0  0  0  0  0  0  0  0  0
   49.8244  -10.2862   30.8055 H   0  0  0  0  0  0  0  0  0  0  0  0
   50.2221   -8.7349   30.4863 H   0  0  0  0  0  0  0  0  0  0  0  0
   50.7178   -9.4356   31.8755 H   0  0  0  0  0  0  0  0  0  0  0  0
   49.6712   -6.5292   33.9337 H   0  0  0  0  0  0  0  0  0  0  0  0
   48.5116   -7.6289   34.2691 H   0  0  0  0  0  0  0  0  0  0  0  0
   50.0631   -8.1066   34.0918 H   0  0  0  0  0  0  0  0  0  0  0  0
   45.8608   -9.8194   29.3774 H   0  0  0  0  0  0  0  0  0  0  0  0
   45.4244  -10.6198   28.0226 H   0  0  0  0  0  0  0  0  0  0  0  0
   48.4169   -9.4112   29.1129 H   0  0  0  0  0  0  0  0  0  0  0  0
   49.0183   -7.9486   29.5197 H   0  0  0  0  0  0  0  0  0  0  0  0
   47.7015   -7.1804   27.9522 H   0  0  0  0  0  0  0  0  0  0  0  0
   46.5110   -7.3623   29.0551 H   0  0  0  0  0  0  0  0  0  0  0  0
   47.1284   -7.8188   31.1138 H   0  0  0  0  0  0  0  0  0  0  0  0
   46.9746   -9.4269   30.8749 H   0  0  0  0  0  0  0  0  0  0  0  0
   47.2484   -9.5021   27.3078 H   0  0  0  0  0  0  0  0  0  0  0  0
   43.6500   -8.3570   29.4540 C   0  0  0  0  0  0  0  0  0  0  0  0
   41.5530   -6.9650   29.5070 C   0  0  0  0  0  0  0  0  0  0  0  0
   44.2100   -9.0120   28.4480 C   0  0  0  0  0  0  0  0  0  0  0  0
   42.3970   -7.8370   28.9330 C   0  0  0  0  0  0  0  0  0  0  0  0
   40.2670   -6.5710   28.8170 C   0  0  0  0  0  0  0  0  0  0  0  0
   42.1290   -8.3470   27.5660 C   0  0  0  0  0  0  0  0  0  0  0  0
   45.9970   -8.1530   26.3750 C   0  0  0  0  0  0  0  0  0  0  0  0
   48.2120   -9.8630   33.0250 C   0  0  0  0  0  0  0  0  0  0  0  0
   49.9760   -9.3830   31.2070 C   0  0  0  0  0  0  0  0  0  0  0  0
   49.3640   -7.4670   33.7720 C   0  0  0  0  0  0  0  0  0  0  0  0
   45.5280   -9.7170   28.4400 C   0  0  1  0  0  0  0  0  0  0  0  0
   48.1890   -8.5050   29.4690 C   0  0  1  0  0  0  0  0  0  0  0  0
   47.2100   -7.8390   28.5220 C   0  0  2  0  0  0  0  0  0  0  0  0
   47.6140   -8.6580   30.8690 C   0  0  1  0  0  0  0  0  0  0  0  0
   46.5330   -8.8770   27.6200 C   0  0  2  0  0  0  0  0  0  0  0  0
   48.7040   -8.9150   31.8970 C   0  0  1  0  0  0  0  0  0  0  0  0
   39.3290   -7.0200   29.4100 O   0  5  0  0  0  0  0  0  0  0  0  0
   39.9990   -5.9020   27.7720 O   0  0  0  0  0  0  0  0  0  0  0  0
   49.1440   -7.6620   32.3720 O   0  0  0  0  0  0  0  0  0  0  0  0
  1 28  1  0  0  0  0
  2 29  1  0  0  0  0
  3 30  1  0  0  0  0
  4 33  1  0  0  0  0
  5 33  1  0  0  0  0
  6 33  1  0  0  0  0
  7 34  1  0  0  0  0
  8 34  1  0  0  0  0
  9 34  1  0  0  0  0
 10 35  1  0  0  0  0
 11 35  1  0  0  0  0
 12 35  1  0  0  0  0
 13 36  1  0  0  0  0
 14 36  1  0  0  0  0
 15 36  1  0  0  0  0
 16 37  1  0  0  0  0
 17 37  1  0  0  0  0
 18 37  1  0  0  0  0
 19 38  1  0  0  0  0
 20 38  1  0  0  0  0
 21 39  1  0  0  0  0
 22 39  1  0  0  0  0
 23 40  1  0  0  0  0
 24 40  1  0  0  0  0
 25 41  1  0  0  0  0
 26 41  1  0  0  0  0
 27 42  1  0  0  0  0
 28 30  2  0  0  0  0
 28 31  1  0  0  0  0
 29 31  2  0  0  0  0
 29 32  1  0  0  0  0
 30 38  1  0  0  0  0
 31 33  1  0  0  0  0
 32 44  1  0  0  0  0
 32 45  2  0  0  0  0
 34 42  1  0  0  0  0
 35 43  1  0  0  0  0
 36 43  1  0  0  0  0
 37 46  1  0  0  0  0
 38 42  1  0  0  0  0
 39 40  1  0  0  0  0
 39 41  1  0  0  0  0
 40 42  1  0  0  0  0
 41 43  1  0  0  0  0
 43 46  1  0  0  0  0
M  CHG  1  44  -1
M  END
> <scpdb_id>
1uhl_1

$$$$
