#    Name: 33012
#    Modification time : Tue Aug  8 22:14:28 2017

@<TRIPOS>MOLECULE
33012
   52     0     9     0     0
SMALL
NO_CHARGES


@<TRIPOS>ATOM
      1 N          14.7370    4.9600   54.9640 N.am      1 SEL1        0.0000 
      2 N          14.1290    3.4930   51.6140 N.am      1 SEL1        0.0000 
      3 O          16.0320    4.4270   52.4210 O.2       2 ALL2        0.0000 
      4 CA         17.5000    2.8200   55.4330 C.3       3 GLL5        0.0000 
      5 CA         17.4870    3.0170   53.8980 C.3       3 GLL5        0.0000 
      6 CA         15.0030    5.3810   50.4520 C.3       3 GLL5        0.0000 
      7 CA         13.7130    6.2100   50.5400 C.3       3 GLL5        0.0000 
      8 CA         13.4570    6.7390   51.9560 C.3       3 GLL5        0.0000 
      9 CA         12.4370    7.8810   51.9690 C.3       3 GLL5        0.0000 
     10 CA         12.1550    8.3660   53.3800 C.3       3 GLL5        0.0000 
     11 N          13.9390    5.8500   57.6890 N.am      4 SEP1        0.0000 
     12 N          12.2780    2.3000   53.3470 N.am      4 SEP1        0.0000 
     13 N          13.1390    1.9350   49.5010 N.am      4 SEP1        0.0000 
     14 O          17.7320    6.4880   52.3470 O.2       5 ALP2        0.0000 
     15 CA         15.8340   -0.3500   54.9370 C.3       6 GLP5        0.0000 
     16 CA         19.0300    3.5230   58.9650 C.3       6 GLP5        0.0000 
     17 CA         15.2440    1.9110   59.0520 C.3       6 GLP5        0.0000 
     18 CA         19.1080    2.4320   50.7390 C.3       6 GLP5        0.0000 
     19 CA         17.0460   -0.7690   54.4180 C.3       6 GLP5        0.0000 
     20 CA         17.5600    2.6880   48.7820 C.3       6 GLP5        0.0000 
     21 CA         10.2580    7.9610   48.7930 C.3       6 GLP5        0.0000 
     22 CA         11.4700    4.1970   54.5710 C.3       6 GLP5        0.0000 
     23 CA          9.4230    8.4340   55.9570 C.3       6 GLP5        0.0000 
     24 CA         15.3890    8.9470   55.6270 C.3       6 GLP5        0.0000 
     25 CA         20.8030    1.3740   54.4370 C.3       6 GLP5        0.0000 
     26 CA         19.1490    6.0210   55.4980 C.3       6 GLP5        0.0000 
     27 CA         16.0920    8.6710   48.1830 C.3       6 GLP5        0.0000 
     28 CA         13.3250    5.0280   47.4340 C.3       6 GLP5        0.0000 
     29 CA         16.0270    9.3180   53.3540 C.3       6 GLP5        0.0000 
     30 CA          8.2530    6.7970   52.8280 C.3       6 GLP5        0.0000 
     31 N          14.3380    5.4050   56.3265 N.am      7 SEC1        0.0000 
     32 N          13.2035    2.8965   52.4805 N.am      7 SEC1        0.0000 
     33 N          13.6340    2.7140   50.5575 N.am      7 SEC1        0.0000 
     34 O          16.8820    5.4575   52.3840 O.2       8 ALC2        0.0000 
     35 CA         16.6670    1.2350   55.1850 C.3       9 GLC5        0.0000 
     36 CA         18.2650    3.1715   57.1990 C.3       9 GLC5        0.0000 
     37 CA         16.3720    2.3655   57.2425 C.3       9 GLC5        0.0000 
     38 CA         18.2975    2.7245   52.3185 C.3       9 GLC5        0.0000 
     39 CA         17.2665    1.1240   54.1580 C.3       9 GLC5        0.0000 
     40 CA         16.2815    4.0345   49.6170 C.3       9 GLC5        0.0000 
     41 CA         11.9855    7.0855   49.6665 C.3       9 GLC5        0.0000 
     42 CA         12.4635    5.4680   53.2635 C.3       9 GLC5        0.0000 
     43 CA         11.3475    7.9210   50.3810 C.3       9 GLC5        0.0000 
     44 CA         11.8125    6.2815   53.9755 C.3       9 GLC5        0.0000 
     45 CA         10.7890    8.4000   54.6685 C.3       9 GLC5        0.0000 
     46 CA         13.7720    8.6565   54.5035 C.3       9 GLC5        0.0000 
     47 CA         19.1482    2.1463   54.5513 C.3       9 GLC5        0.0000 
     48 CA         18.3212    4.4697   55.0817 C.3       9 GLC5        0.0000 
     49 CA         15.2250    7.2332   49.3395 C.3       9 GLC5        0.0000 
     50 CA         13.8415    5.4117   48.9650 C.3       9 GLC5        0.0000 
     51 CA         14.4870    8.3140   52.6583 C.3       9 GLC5        0.0000 
     52 CA         10.2745    7.4603   52.7512 C.3       9 GLC5        0.0000 
@<TRIPOS>BOND
@<TRIPOS>SUBSTRUCTURE
     1 SEL1        1 GROUP        1 Z    SEL  0     ROOT SEL Z 0
     2 ALL2        3 GROUP        1 Z    ALL  0     **** ALL Z 1
     3 GLL5        4 GROUP        1 Z    GLL  0     **** GLL Z 4
     4 SEP1       11 GROUP        1 Z    SEP  0     **** SEP Z 7
     5 ALP2       14 GROUP        1 Z    ALP  0     **** ALP Z 8
     6 GLP5       15 GROUP        1 Z    GLP  0     **** GLP Z 11
     7 SEC1       31 GROUP        1 Z    SEC  0     **** SEC Z 14
     8 ALC2       34 GROUP        1 Z    ALC  0     **** ALC Z 15
     9 GLC5       35 GROUP        1 Z    GLC  0     **** GLC Z 18
@<TRIPOS>SET

