2zla_VDB_1_ligand
  -OEChem-08111718373D

 80 82  0     1  0  0  0  0  0999 V2000
   14.4060    0.8250   25.9632 H   0  0  0  0  0  0  0  0  0  0  0  0
   14.5334    7.6086   23.2617 H   0  0  0  0  0  0  0  0  0  0  0  0
   14.4700    4.7761   23.1561 H   0  0  0  0  0  0  0  0  0  0  0  0
   14.0060    2.8330   24.0671 H   0  0  0  0  0  0  0  0  0  0  0  0
   15.5583    2.5668   24.4985 H   0  0  0  0  0  0  0  0  0  0  0  0
   13.2146    5.5089   20.3467 H   0  0  0  0  0  0  0  0  0  0  0  0
   14.6665    4.9394   20.8307 H   0  0  0  0  0  0  0  0  0  0  0  0
   14.9033    8.9104   21.4454 H   0  0  0  0  0  0  0  0  0  0  0  0
   13.3534    8.7008   20.9755 H   0  0  0  0  0  0  0  0  0  0  0  0
   15.5727    6.5121   26.5520 H   0  0  0  0  0  0  0  0  0  0  0  0
   14.6461    7.4656   25.6039 H   0  0  0  0  0  0  0  0  0  0  0  0
   13.7478    7.0508   27.8709 H   0  0  0  0  0  0  0  0  0  0  0  0
   12.6991    6.7847   26.6477 H   0  0  0  0  0  0  0  0  0  0  0  0
   14.0504    4.7625   28.2279 H   0  0  0  0  0  0  0  0  0  0  0  0
   12.4364    4.9775   28.1037 H   0  0  0  0  0  0  0  0  0  0  0  0
   15.3622    3.9967   26.3703 H   0  0  0  0  0  0  0  0  0  0  0  0
   15.7571    6.0558   19.0992 H   0  0  0  0  0  0  0  0  0  0  0  0
   14.3855    9.3838   19.0456 H   0  0  0  0  0  0  0  0  0  0  0  0
   13.1972    7.3137   18.5329 H   0  0  0  0  0  0  0  0  0  0  0  0
   11.7779    5.0316   25.3667 H   0  0  0  0  0  0  0  0  0  0  0  0
   11.9566    3.5062   24.8118 H   0  0  0  0  0  0  0  0  0  0  0  0
   11.1350    3.7804   26.1961 H   0  0  0  0  0  0  0  0  0  0  0  0
    7.0548   -0.3428   30.3140 H   0  0  0  0  0  0  0  0  0  0  0  0
    7.2343   -1.3128   29.0126 H   0  0  0  0  0  0  0  0  0  0  0  0
    8.4250   -1.2109   30.1254 H   0  0  0  0  0  0  0  0  0  0  0  0
    7.2690   -0.6024   25.0964 H   0  0  0  0  0  0  0  0  0  0  0  0
    6.8441    0.2321   26.4342 H   0  0  0  0  0  0  0  0  0  0  0  0
    7.9443    0.8532   25.3995 H   0  0  0  0  0  0  0  0  0  0  0  0
   14.5998    1.5240   29.0694 H   0  0  0  0  0  0  0  0  0  0  0  0
   13.7928    2.8685   29.5251 H   0  0  0  0  0  0  0  0  0  0  0  0
   13.3310    1.4080   30.0908 H   0  0  0  0  0  0  0  0  0  0  0  0
    8.7871    1.0618   29.5299 H   0  0  0  0  0  0  0  0  0  0  0  0
    7.5963    0.9598   28.4171 H   0  0  0  0  0  0  0  0  0  0  0  0
    8.3520   -1.5212   26.9851 H   0  0  0  0  0  0  0  0  0  0  0  0
    9.4521   -0.9001   25.9504 H   0  0  0  0  0  0  0  0  0  0  0  0
   14.9535    8.3154   14.9220 H   0  0  0  0  0  0  0  0  0  0  0  0
   13.5133    8.8735   14.3919 H   0  0  0  0  0  0  0  0  0  0  0  0
   13.2560    9.1228   16.6539 H   0  0  0  0  0  0  0  0  0  0  0  0
   12.6265    7.6280   16.4643 H   0  0  0  0  0  0  0  0  0  0  0  0
    9.1398    2.0568   27.1535 H   0  0  0  0  0  0  0  0  0  0  0  0
   10.4263    1.3183   26.4706 H   0  0  0  0  0  0  0  0  0  0  0  0
   12.6662    0.7569   27.9067 H   0  0  0  0  0  0  0  0  0  0  0  0
   13.5178    4.5227   18.5454 H   0  0  0  0  0  0  0  0  0  0  0  0
   16.4573    9.2923   19.9807 H   0  0  0  0  0  0  0  0  0  0  0  0
   12.8815    6.4963   14.6688 H   0  0  0  0  0  0  0  0  0  0  0  0
   10.5117   -0.4188   29.3407 H   0  0  0  0  0  0  0  0  0  0  0  0
   14.1690    1.7960   25.9310 C   0  0  0  0  0  0  0  0  0  0  0  0
   13.3900    2.4290   26.8390 C   0  0  0  0  0  0  0  0  0  0  0  0
   14.3230    6.9030   21.4170 C   0  0  0  0  0  0  0  0  0  0  0  0
   14.6260    5.4610   25.0140 C   0  0  0  0  0  0  0  0  0  0  0  0
   14.4590    6.7360   22.7790 C   0  0  0  0  0  0  0  0  0  0  0  0
   14.5180    5.6460   23.6470 C   0  0  0  0  0  0  0  0  0  0  0  0
   14.6420    2.7810   24.8370 C   0  0  2  0  0  0  0  0  0  0  0  0
   14.1860    5.7260   20.4430 C   0  0  2  0  0  0  0  0  0  0  0  0
   14.2880    8.3570   20.8840 C   0  0  2  0  0  0  0  0  0  0  0  0
   14.7020    6.5800   26.0650 C   0  0  1  0  0  0  0  0  0  0  0  0
   13.5390    6.4660   27.0870 C   0  0  1  0  0  0  0  0  0  0  0  0
   13.3040    5.0020   27.6070 C   0  0  1  0  0  0  0  0  0  0  0  0
   14.6170    4.0420   25.7050 C   0  0  2  0  0  0  0  0  0  0  0  0
   14.7600    6.0020   19.0460 C   0  0  2  0  0  0  0  0  0  0  0  0
   14.7180    8.5090   19.3980 C   0  0  2  0  0  0  0  0  0  0  0  0
   14.1950    7.3410   18.4730 C   0  0  1  0  0  0  0  0  0  0  0  0
   13.2500    3.9330   26.4580 C   0  0  1  0  0  0  0  0  0  0  0  0
   11.9060    4.0760   25.6320 C   0  0  0  0  0  0  0  0  0  0  0  0
    7.7080   -0.7030   29.6480 C   0  0  0  0  0  0  0  0  0  0  0  0
    7.5970    0.0120   25.8140 C   0  0  0  0  0  0  0  0  0  0  0  0
   13.7020    1.8980   29.3020 C   0  0  0  0  0  0  0  0  0  0  0  0
    8.3390    0.4630   28.8660 C   0  0  2  0  0  0  0  0  0  0  0  0
    8.7280   -0.6770   26.6030 C   0  0  1  0  0  0  0  0  0  0  0  0
   13.9670    8.1520   14.9150 C   0  0  2  0  0  0  0  0  0  0  0  0
   13.4490    8.1870   16.3590 C   0  0  1  0  0  0  0  0  0  0  0  0
    9.9310    1.4700   27.3260 C   0  0  2  0  0  0  0  0  0  0  0  0
   12.7510    1.7340   28.1020 C   0  0  1  0  0  0  0  0  0  0  0  0
    9.3880    0.1080   27.7760 C   0  0  1  0  0  0  0  0  0  0  0  0
   14.3860    4.9000   18.2230 O   0  0  0  0  0  0  0  0  0  0  0  0
   16.1420    8.5230   19.4250 O   0  0  0  0  0  0  0  0  0  0  0  0
   13.7130    6.8990   14.2860 O   0  0  0  0  0  0  0  0  0  0  0  0
   10.4170   -0.6760   28.3790 O   0  0  0  0  0  0  0  0  0  0  0  0
   14.5660    7.6240   17.0890 O   0  0  0  0  0  0  0  0  0  0  0  0
   11.0540    2.4000   28.4360 S   0  0  0  0  0  0  0  0  0  0  0  0
  1 47  1  0  0  0  0
  2 51  1  0  0  0  0
  3 52  1  0  0  0  0
  4 53  1  0  0  0  0
  5 53  1  0  0  0  0
  6 54  1  0  0  0  0
  7 54  1  0  0  0  0
  8 55  1  0  0  0  0
  9 55  1  0  0  0  0
 10 56  1  0  0  0  0
 11 56  1  0  0  0  0
 12 57  1  0  0  0  0
 13 57  1  0  0  0  0
 14 58  1  0  0  0  0
 15 58  1  0  0  0  0
 16 59  1  0  0  0  0
 17 60  1  0  0  0  0
 18 61  1  0  0  0  0
 19 62  1  0  0  0  0
 20 64  1  0  0  0  0
 21 64  1  0  0  0  0
 22 64  1  0  0  0  0
 23 65  1  0  0  0  0
 24 65  1  0  0  0  0
 25 65  1  0  0  0  0
 26 66  1  0  0  0  0
 27 66  1  0  0  0  0
 28 66  1  0  0  0  0
 29 67  1  0  0  0  0
 30 67  1  0  0  0  0
 31 67  1  0  0  0  0
 32 68  1  0  0  0  0
 33 68  1  0  0  0  0
 34 69  1  0  0  0  0
 35 69  1  0  0  0  0
 36 70  1  0  0  0  0
 37 70  1  0  0  0  0
 38 71  1  0  0  0  0
 39 71  1  0  0  0  0
 40 72  1  0  0  0  0
 41 72  1  0  0  0  0
 42 73  1  0  0  0  0
 43 75  1  0  0  0  0
 44 76  1  0  0  0  0
 45 77  1  0  0  0  0
 46 78  1  0  0  0  0
 47 48  2  0  0  0  0
 47 53  1  0  0  0  0
 48 63  1  0  0  0  0
 48 73  1  0  0  0  0
 49 51  2  0  0  0  0
 49 54  1  0  0  0  0
 49 55  1  0  0  0  0
 50 52  2  0  0  0  0
 50 56  1  0  0  0  0
 50 59  1  0  0  0  0
 51 52  1  0  0  0  0
 53 59  1  0  0  0  0
 54 60  1  0  0  0  0
 55 61  1  0  0  0  0
 56 57  1  0  0  0  0
 57 58  1  0  0  0  0
 58 63  1  0  0  0  0
 59 63  1  0  0  0  0
 60 62  1  0  0  0  0
 60 75  1  0  0  0  0
 61 62  1  0  0  0  0
 61 76  1  0  0  0  0
 62 79  1  0  0  0  0
 63 64  1  0  0  0  0
 65 68  1  0  0  0  0
 66 69  1  0  0  0  0
 67 73  1  0  0  0  0
 68 74  1  0  0  0  0
 69 74  1  0  0  0  0
 70 71  1  0  0  0  0
 70 77  1  0  0  0  0
 71 79  1  0  0  0  0
 72 74  1  0  0  0  0
 72 80  1  0  0  0  0
 73 80  1  0  0  0  0
 74 78  1  0  0  0  0
M  END
> <scpdb_id>
2zla_1

$$$$
