3ipu_O40_1_ligand
  -OEChem-08111718373D

 58 60  0     1  0  0  0  0  0999 V2000
   25.5034  -13.3999   19.4901 H   0  0  0  0  0  0  0  0  0  0  0  0
   13.0550  -14.2117   16.8519 H   0  0  0  0  0  0  0  0  0  0  0  0
   11.2243  -17.2029   19.0670 H   0  0  0  0  0  0  0  0  0  0  0  0
   15.1929  -15.1617   17.3256 H   0  0  0  0  0  0  0  0  0  0  0  0
   13.3555  -18.1287   19.5689 H   0  0  0  0  0  0  0  0  0  0  0  0
   23.2311  -13.9669   18.9240 H   0  0  0  0  0  0  0  0  0  0  0  0
   23.6948  -19.0699   16.0328 H   0  0  0  0  0  0  0  0  0  0  0  0
   22.4745  -18.7019   17.0536 H   0  0  0  0  0  0  0  0  0  0  0  0
   23.6839  -17.6325   16.8078 H   0  0  0  0  0  0  0  0  0  0  0  0
   18.9870  -19.1416   19.4084 H   0  0  0  0  0  0  0  0  0  0  0  0
   17.4604  -19.1276   19.9879 H   0  0  0  0  0  0  0  0  0  0  0  0
   17.7219  -19.2074   18.3779 H   0  0  0  0  0  0  0  0  0  0  0  0
   22.9517  -18.6175   19.6008 H   0  0  0  0  0  0  0  0  0  0  0  0
   24.4286  -19.0481   20.1485 H   0  0  0  0  0  0  0  0  0  0  0  0
   24.0160  -20.2009   18.1169 H   0  0  0  0  0  0  0  0  0  0  0  0
   25.2254  -19.1316   17.8711 H   0  0  0  0  0  0  0  0  0  0  0  0
   20.0932  -16.8821   17.4494 H   0  0  0  0  0  0  0  0  0  0  0  0
   19.2714  -15.4802   17.6100 H   0  0  0  0  0  0  0  0  0  0  0  0
   19.9590  -17.2221   19.8248 H   0  0  0  0  0  0  0  0  0  0  0  0
   19.1134  -15.8326   19.9695 H   0  0  0  0  0  0  0  0  0  0  0  0
   21.5899  -14.9534   17.4747 H   0  0  0  0  0  0  0  0  0  0  0  0
   21.1042  -14.6394   19.0018 H   0  0  0  0  0  0  0  0  0  0  0  0
   17.7390  -14.9941   18.9979 H   0  0  0  0  0  0  0  0  0  0  0  0
   25.1920  -14.3500   19.4710 C   0  0  0  0  0  0  0  0  0  0  0  0
   13.1170  -15.0330   17.4190 C   0  0  0  0  0  0  0  0  0  0  0  0
   12.0510  -16.7680   18.7100 C   0  0  0  0  0  0  0  0  0  0  0  0
   14.3690  -15.5880   17.6990 C   0  0  0  0  0  0  0  0  0  0  0  0
   13.2990  -17.3110   18.9960 C   0  0  0  0  0  0  0  0  0  0  0  0
   23.8860  -14.6880   19.1500 C   0  0  0  0  0  0  0  0  0  0  0  0
   26.0380  -15.4030   19.7630 C   0  0  0  0  0  0  0  0  0  0  0  0
   11.9490  -15.6160   17.9250 C   0  0  0  0  0  0  0  0  0  0  0  0
   24.3600  -17.0880   19.4400 C   0  0  0  0  0  0  0  0  0  0  0  0
   14.4840  -16.7380   18.4990 C   0  0  0  0  0  0  0  0  0  0  0  0
   25.6740  -16.7310   19.7580 C   0  0  0  0  0  0  0  0  0  0  0  0
   23.4700  -16.0320   19.1380 C   0  0  0  0  0  0  0  0  0  0  0  0
   27.4660  -15.5330   20.1340 C   0  0  0  0  0  0  0  0  0  0  0  0
   10.5940  -15.0140   17.6070 C   0  0  0  0  0  0  0  0  0  0  0  0
   16.8560  -16.6980   18.9410 C   0  0  0  0  0  0  0  0  0  0  0  0
   23.4550  -18.6030   16.8840 C   0  0  0  0  0  0  0  0  0  0  0  0
   18.0530  -18.8260   19.2410 C   0  0  0  0  0  0  0  0  0  0  0  0
   23.9350  -18.5610   19.4280 C   0  0  2  0  0  0  0  0  0  0  0  0
   24.2480  -19.2300   18.0580 C   0  0  1  0  0  0  0  0  0  0  0  0
   19.9160  -16.1040   18.0520 C   0  0  1  0  0  0  0  0  0  0  0  0
   19.3000  -16.6170   19.3780 C   0  0  1  0  0  0  0  0  0  0  0  0
   21.2410  -15.3580   18.3200 C   0  0  1  0  0  0  0  0  0  0  0  0
   28.2910  -14.2950   20.3050 C   0  0  2  0  0  0  0  0  0  0  0  0
   27.8470  -16.7440   20.3400 N   0  0  0  0  0  0  0  0  0  0  0  0
   15.7010  -17.3060   18.7770 N   0  3  0  0  0  0  0  0  0  0  0  0
   18.0380  -17.3630   19.1660 N   0  0  0  0  0  0  0  0  0  0  0  0
    9.5680  -15.6210   17.9250 O   0  5  0  0  0  0  0  0  0  0  0  0
   10.5570  -13.8300   16.9650 O   0  0  0  0  0  0  0  0  0  0  0  0
   26.7150  -17.5990   20.0950 O   0  0  0  0  0  0  0  0  0  0  0  0
   16.8760  -15.4860   18.8830 O   0  0  0  0  0  0  0  0  0  0  0  0
   22.1560  -16.3500   18.8150 O   0  0  0  0  0  0  0  0  0  0  0  0
   29.5530  -14.6820   20.6920 F   0  0  0  0  0  0  0  0  0  0  0  0
   27.6560  -13.6020   21.2920 F   0  0  0  0  0  0  0  0  0  0  0  0
   28.3060  -13.4750   19.2090 F   0  0  0  0  0  0  0  0  0  0  0  0
   15.7117  -18.3020   18.8657 H   0  0  0  0  0  0  0  0  0  0  0  0
  1 24  1  0  0  0  0
  2 25  1  0  0  0  0
  3 26  1  0  0  0  0
  4 27  1  0  0  0  0
  5 28  1  0  0  0  0
  6 29  1  0  0  0  0
  7 39  1  0  0  0  0
  8 39  1  0  0  0  0
  9 39  1  0  0  0  0
 10 40  1  0  0  0  0
 11 40  1  0  0  0  0
 12 40  1  0  0  0  0
 13 41  1  0  0  0  0
 14 41  1  0  0  0  0
 15 42  1  0  0  0  0
 16 42  1  0  0  0  0
 17 43  1  0  0  0  0
 18 43  1  0  0  0  0
 19 44  1  0  0  0  0
 20 44  1  0  0  0  0
 21 45  1  0  0  0  0
 22 45  1  0  0  0  0
 23 53  1  0  0  0  0
 24 29  1  0  0  0  0
 24 30  2  0  0  0  0
 25 27  2  0  0  0  0
 25 31  1  0  0  0  0
 26 28  1  0  0  0  0
 26 31  2  0  0  0  0
 27 33  1  0  0  0  0
 28 33  2  0  0  0  0
 29 35  2  0  0  0  0
 30 34  1  0  0  0  0
 30 36  1  0  0  0  0
 31 37  1  0  0  0  0
 32 34  2  0  0  0  0
 32 35  1  0  0  0  0
 32 41  1  0  0  0  0
 33 48  1  0  0  0  0
 34 52  1  0  0  0  0
 35 54  1  0  0  0  0
 36 46  1  0  0  0  0
 36 47  2  0  0  0  0
 37 50  1  0  0  0  0
 37 51  2  0  0  0  0
 38 48  2  0  0  0  0
 38 49  1  0  0  0  0
 38 53  1  0  0  0  0
 39 42  1  0  0  0  0
 40 49  1  0  0  0  0
 41 42  1  0  0  0  0
 43 44  1  0  0  0  0
 43 45  1  0  0  0  0
 44 49  1  0  0  0  0
 45 54  1  0  0  0  0
 46 55  1  0  0  0  0
 46 56  1  0  0  0  0
 46 57  1  0  0  0  0
 47 52  1  0  0  0  0
 48 58  1  0  0  0  0
M  CHG  2  48   1  50  -1
M  END
> <scpdb_id>
3ipu_1

$$$$
