@<TRIPOS>MOLECULE
1bdi_HPA_1_ligand
   14    15     1     0     0
SMALL
NO_CHARGES


@<TRIPOS>ATOM
     1 N1          56.9830     2.4690   -11.0450 N.2          1 HPA599   0.0000
     2 C2          57.7520     2.5170    -9.9110 C.2          1 HPA599   0.0000
     3 N3          58.3950     3.6000    -9.5040 N.pl3        1 HPA599   0.0000
     4 C4          58.2060     4.6630   -10.3190 C.2          1 HPA599   0.0000
     5 C5          57.4650     4.7120   -11.4730 C.2          1 HPA599   0.0000
     6 C6          56.7760     3.5490   -11.8970 C.2          1 HPA599   0.0000
     7 O6          56.0710     3.3940   -12.9010 O.2          1 HPA599   0.0000
     8 N7          57.5460     5.9780   -12.0390 N.2          1 HPA599   0.0000
     9 C8          58.3140     6.6610   -11.2370 C.2          1 HPA599   0.0000
    10 N9          58.7320     5.9290   -10.1550 N.pl3        1 HPA599   0.0000
    11 H1          57.8317     1.6864    -9.3599 H            1 HPA599   0.0000
    12 H2          58.5704     7.6148   -11.3936 H            1 HPA599   0.0000
    13 H3          59.3033     6.2483    -9.3989 H            1 HPA599   0.0000
    14 H4          58.9612     3.6293    -8.6803 H            1 HPA599   0.0000
@<TRIPOS>BOND
     1    1    2       2
     2    1    6       1
     3    2    3       1
     4    3    4       1
     5    4    5       2
     6    4   10       1
     7    5    6       1
     8    5    8       1
     9    6    7       2
    10    8    9       2
    11    9   10       1
    12   10   13       1
    13    2   11       1
    14    9   12       1
    15    3   14       1
@<TRIPOS>SUBSTRUCTURE
     1 HPA599      1 GROUP             4 A     HPA     0 **** HPA A 599
