@<TRIPOS>MOLECULE
3lmp_CEK_1_ligand
   59    63     1     0     0
SMALL
NO_CHARGES


@<TRIPOS>ATOM
     1 C1          15.2380    51.2990    66.9070 C.3          1 CEK23    0.0000
     2 C2          16.1160    51.2530    65.6560 C.2          1 CEK23    0.0000
     3 O3          17.2390    51.7540    65.6560 O.2          1 CEK23    0.0000
     4 C4          15.5580    50.5930    64.4030 C.2          1 CEK23    0.0000
     5 C5          14.6580    49.3320    64.5750 C.2          1 CEK23    0.0000
     6 C6          14.6510    48.3690    63.3260 C.3          1 CEK23    0.0000
     7 C7          14.7470    49.2040    62.0370 C.2          1 CEK23    0.0000
     8 C8          15.2970    50.4520    62.0030 C.2          1 CEK23    0.0000
     9 C9          15.8010    51.0400    63.1300 C.2          1 CEK23    0.0000
    10 O10         14.2220    48.5820    60.9340 O.3          1 CEK23    0.0000
    11 C11         13.2080    47.8180    61.5070 C.ar         1 CEK23    0.0000
    12 C12         13.3760    47.6470    62.8830 C.ar         1 CEK23    0.0000
    13 C13         12.1030    47.2470    60.8360 C.ar         1 CEK23    0.0000
    14 C14         11.1650    46.4950    61.5950 C.ar         1 CEK23    0.0000
    15 C15         11.3580    46.3380    62.9860 C.ar         1 CEK23    0.0000
    16 C16         12.4550    46.9100    63.6240 C.ar         1 CEK23    0.0000
    17 C17         15.8420    47.3840    63.4340 C.3          1 CEK23    0.0000
    18 O18         14.0110    49.0930    65.5930 O.2          1 CEK23    0.0000
    19 O19         16.5890    52.1440    62.9430 O.3          1 CEK23    0.0000
    20 O20         12.6070    46.7340    64.9740 O.3          1 CEK23    0.0000
    21 O21         10.0770    45.9370    60.9140 O.3          1 CEK23    0.0000
    22 C22          9.1190    45.0120    61.4890 C.3          1 CEK23    0.0000
    23 C23         11.9920    47.4800    59.3280 C.2          1 CEK23    0.0000
    24 O24         12.9970    47.7110    58.6580 O.2          1 CEK23    0.0000
    25 N25         10.8290    47.4120    58.6520 N.am         1 CEK23    0.0000
    26 C26         10.4680    48.2180    57.4680 C.3          1 CEK23    0.0000
    27 C27          8.9520    48.5290    57.3970 C.ar         1 CEK23    0.0000
    28 C28          7.9170    47.5620    57.5500 C.ar         1 CEK23    0.0000
    29 C29          6.5400    47.9910    57.4640 C.ar         1 CEK23    0.0000
    30 C30          6.2490    49.3350    57.2340 C.ar         1 CEK23    0.0000
    31 C31          7.2760    50.2650    57.0870 C.ar         1 CEK23    0.0000
    32 C32          8.6080    49.8690    57.1680 C.ar         1 CEK23    0.0000
    33 C33          5.5070    47.0510    57.6130 C.ar         1 CEK23    0.0000
    34 C34          5.8090    45.7110    57.8430 C.ar         1 CEK23    0.0000
    35 C35          7.1330    45.2880    57.9270 C.ar         1 CEK23    0.0000
    36 C36          8.1760    46.2010    57.7840 C.ar         1 CEK23    0.0000
    37 H1          14.3669    50.8449    66.7198 H            1 CEK23    0.0000
    38 H2          15.7033    50.8308    67.6582 H            1 CEK23    0.0000
    39 H3          15.0695    52.2514    67.1612 H            1 CEK23    0.0000
    40 H4          15.3323    50.9475    61.1351 H            1 CEK23    0.0000
    41 H5          10.6978    45.8090    63.5191 H            1 CEK23    0.0000
    42 H6          15.8408    46.7716    62.6435 H            1 CEK23    0.0000
    43 H7          16.6992    47.8985    63.4558 H            1 CEK23    0.0000
    44 H8          15.7547    46.8461    64.2725 H            1 CEK23    0.0000
    45 H9          16.9819    52.6172    63.7315 H            1 CEK23    0.0000
    46 H10         13.3906    47.1382    65.4458 H            1 CEK23    0.0000
    47 H11          8.4406    44.7624    60.7980 H            1 CEK23    0.0000
    48 H12          9.5953    44.1898    61.8008 H            1 CEK23    0.0000
    49 H13          8.6607    45.4461    62.2646 H            1 CEK23    0.0000
    50 H14         10.1489    46.7570    58.9813 H            1 CEK23    0.0000
    51 H15         10.7301    47.7134    56.6454 H            1 CEK23    0.0000
    52 H16         10.9706    49.0818    57.5035 H            1 CEK23    0.0000
    53 H17          5.2965    49.6336    57.1741 H            1 CEK23    0.0000
    54 H18          7.0541    51.2260    56.9218 H            1 CEK23    0.0000
    55 H19          9.3313    50.5512    57.0612 H            1 CEK23    0.0000
    56 H20          4.5529    47.3445    57.5538 H            1 CEK23    0.0000
    57 H21          5.0688    45.0470    57.9487 H            1 CEK23    0.0000
    58 H22          7.3367    44.3228    58.0910 H            1 CEK23    0.0000
    59 H23          9.1219    45.8831    57.8488 H            1 CEK23    0.0000
@<TRIPOS>BOND
     1    1    2       1
     2    2    3       2
     3    2    4       1
     4    4    5       1
     5    4    9       2
     6    5    6       1
     7    5   18       2
     8    6    7       1
     9    6   12       1
    10    6   17       1
    11    7    8       2
    12    7   10       1
    13    8    9       1
    14    9   19       1
    15   10   11       1
    16   11   12      ar
    17   11   13      ar
    18   12   16      ar
    19   13   14      ar
    20   13   23       1
    21   14   15      ar
    22   14   21       1
    23   15   16      ar
    24   16   20       1
    25   21   22       1
    26   23   24       2
    27   23   25      am
    28   25   26       1
    29   26   27       1
    30   27   28      ar
    31   27   32      ar
    32   28   29      ar
    33   28   36      ar
    34   29   30      ar
    35   29   33      ar
    36   30   31      ar
    37   31   32      ar
    38   33   34      ar
    39   34   35      ar
    40   35   36      ar
    41    1   37       1
    42    1   38       1
    43    1   39       1
    44    8   40       1
    45   15   41       1
    46   17   42       1
    47   17   43       1
    48   17   44       1
    49   19   45       1
    50   20   46       1
    51   22   47       1
    52   22   48       1
    53   22   49       1
    54   25   50       1
    55   26   51       1
    56   26   52       1
    57   30   53       1
    58   31   54       1
    59   32   55       1
    60   33   56       1
    61   34   57       1
    62   35   58       1
    63   36   59       1
@<TRIPOS>SUBSTRUCTURE
     1 CEK23       1 GROUP             4 A     CEK     0 **** CEK A  23
