#    Name: 25953
#    Modification time : Wed Aug  9 00:28:38 2017

@<TRIPOS>MOLECULE
25953
   49     0    12     0     0
SMALL
NO_CHARGES


@<TRIPOS>ATOM
      1 N          33.1390   73.2200    9.2900 N.am      1 SEL1        0.0000 
      2 N          32.7390   74.3460    8.8860 N.am      1 SEL1        0.0000 
      3 O          32.4210   74.2540   11.0330 O.2       2 ALL2        0.0000 
      4 CA         33.7670   70.8100   10.8100 C.3       3 GLL5        0.0000 
      5 CA         33.9070   68.4940   13.6130 C.3       3 GLL5        0.0000 
      6 CA         33.1210   70.7410   13.4890 C.3       3 GLL5        0.0000 
      7 CA         30.2240   78.7010    9.8050 C.3       3 GLL5        0.0000 
      8 CA         30.6270   78.1770   11.0380 C.3       3 GLL5        0.0000 
      9 CA         31.3310   76.9710   11.1220 C.3       3 GLL5        0.0000 
     10 CA         33.2390   71.9610   11.4080 C.3       3 GLL5        0.0000 
     11 CA         33.6780   69.6150   12.8910 C.3       3 GLL5        0.0000 
     12 CA         31.2220   76.8130    8.7300 C.3       3 GLL5        0.0000 
     13 CZ         32.7154   73.9952    9.9598 C.ar      4 PHL6        0.0000 
     14 N          35.2490   74.8590    7.9510 N.am      5 SEP1        0.0000 
     15 O          33.4900   75.6110   13.5560 O.2       6 ALP2        0.0000 
     16 CA         35.4200   71.1470    7.4180 C.3       7 GLP5        0.0000 
     17 CA         35.2380   66.0870   16.9250 C.3       7 GLP5        0.0000 
     18 CA         37.4960   68.4240   13.1150 C.3       7 GLP5        0.0000 
     19 CA         31.7840   67.1080   15.7090 C.3       7 GLP5        0.0000 
     20 CA         36.0050   72.1340   16.0680 C.3       7 GLP5        0.0000 
     21 CA         30.4340   79.9240   13.6880 C.3       7 GLP5        0.0000 
     22 CA         32.1380   80.5080   13.7890 C.3       7 GLP5        0.0000 
     23 CA         36.5460   72.9800   11.7290 C.3       7 GLP5        0.0000 
     24 CA         29.6460   68.2010   12.4010 C.3       7 GLP5        0.0000 
     25 CA         29.0150   70.0850   13.9920 C.3       7 GLP5        0.0000 
     26 CA         31.4760   76.6690    5.0280 C.3       7 GLP5        0.0000 
     27 CA         29.2450   74.1080    7.3210 C.3       7 GLP5        0.0000 
     28 CA         34.7540   77.2310    8.0510 C.3       7 GLP5        0.0000 
     29 CA         32.4040   81.8850    9.6500 C.3       7 GLP5        0.0000 
     30 CZ         28.9417   73.3973   10.0810 C.ar      8 PHP6        0.0000 
     31 N          34.1940   74.0395    8.6205 N.am      9 SEC1        0.0000 
     32 N          33.9940   74.6025    8.4185 N.am      9 SEC1        0.0000 
     33 O          32.9555   74.9325   12.2945 O.2      10 ALC2        0.0000 
     34 CA         34.5935   70.9785    9.1140 C.3      11 GLC5        0.0000 
     35 CA         34.5725   67.2905   15.2690 C.3      11 GLC5        0.0000 
     36 CA         35.7015   68.4590   13.3640 C.3      11 GLC5        0.0000 
     37 CA         32.8455   67.8010   14.6610 C.3      11 GLC5        0.0000 
     38 CA         34.5630   71.4375   14.7785 C.3      11 GLC5        0.0000 
     39 CA         30.3290   79.3125   11.7465 C.3      11 GLC5        0.0000 
     40 CA         31.3825   79.3425   12.4135 C.3      11 GLC5        0.0000 
     41 CA         30.8825   78.4475   12.4050 C.3      11 GLC5        0.0000 
     42 CA         34.8925   72.4705   11.5685 C.3      11 GLC5        0.0000 
     43 CA         31.7192   68.6277   12.8265 C.3      11 GLC5        0.0000 
     44 CA         31.0105   70.7050   13.5572 C.3      11 GLC5        0.0000 
     45 CA         31.1732   77.0405    6.8562 C.3      11 GLC5        0.0000 
     46 CA         30.1145   75.6964    8.1561 C.3      11 GLC5        0.0000 
     47 CA         32.8690   77.2579    8.5211 C.3      11 GLC5        0.0000 
     48 CA         31.4516   80.0757    9.8900 C.3      11 GLC5        0.0000 
     49 CZ         30.8285   73.6963   10.0204 C.ar     12 PHC6        0.0000 
@<TRIPOS>BOND
@<TRIPOS>SUBSTRUCTURE
     1 SEL1        1 GROUP        1 Z    SEL  0     ROOT SEL Z 0
     2 ALL2        3 GROUP        1 Z    ALL  0     **** ALL Z 1
     3 GLL5        4 GROUP        1 Z    GLL  0     **** GLL Z 4
     4 PHL6       13 GROUP        1 Z    PHL  0     **** PHL Z 6
     5 SEP1       14 GROUP        1 Z    SEP  0     **** SEP Z 7
     6 ALP2       15 GROUP        1 Z    ALP  0     **** ALP Z 8
     7 GLP5       16 GROUP        1 Z    GLP  0     **** GLP Z 11
     8 PHP6       30 GROUP        1 Z    PHP  0     **** PHP Z 13
     9 SEC1       31 GROUP        1 Z    SEC  0     **** SEC Z 14
    10 ALC2       33 GROUP        1 Z    ALC  0     **** ALC Z 15
    11 GLC5       34 GROUP        1 Z    GLC  0     **** GLC Z 18
    12 PHC6       49 GROUP        1 Z    PHC  0     **** PHC Z 20
@<TRIPOS>SET

