@<TRIPOS>MOLECULE
3g1l_RF2_1_ligand
   28    30     1     0     0
SMALL
NO_CHARGES


@<TRIPOS>ATOM
     1 C6          33.7670    70.8100    10.8100 C.ar         1 RF2237   0.0000
     2 C5          33.9990    69.6270    11.5310 C.ar         1 RF2237   0.0000
     3 C4          33.6780    69.6150    12.8910 C.ar         1 RF2237   0.0000
     4 F           33.9070    68.4940    13.6130 F            1 RF2237   0.0000
     5 C3          33.1210    70.7410    13.4890 C.ar         1 RF2237   0.0000
     6 C8          32.8910    71.9090    12.7560 C.ar         1 RF2237   0.0000
     7 C7          33.2390    71.9610    11.4080 C.ar         1 RF2237   0.0000
     8 C2          32.9750    73.1050    10.6230 C.2          1 RF2237   0.0000
     9 N3          32.4210    74.2540    11.0330 N.pl3        1 RF2237   0.0000
    10 N2          33.1390    73.2200     9.2900 N.2          1 RF2237   0.0000
    11 N1          32.7390    74.3460     8.8860 N.2          1 RF2237   0.0000
    12 C1          32.3030    75.0510     9.9670 C.2          1 RF2237   0.0000
    13 C9          31.6760    76.3040     9.9570 C.ar         1 RF2237   0.0000
    14 C10         31.2220    76.8130     8.7300 C.ar         1 RF2237   0.0000
    15 C11         30.5190    78.0110     8.6390 C.ar         1 RF2237   0.0000
    16 C12         30.2240    78.7010     9.8050 C.ar         1 RF2237   0.0000
    17 C13         30.6270    78.1770    11.0380 C.ar         1 RF2237   0.0000
    18 C14         31.3310    76.9710    11.1220 C.ar         1 RF2237   0.0000
    19 H1          33.9868    70.8310     9.8347 H            1 RF2237   0.0000
    20 H2          34.3821    68.8182    11.0848 H            1 RF2237   0.0000
    21 H3          32.8811    70.7144    14.4594 H            1 RF2237   0.0000
    22 H4          32.4778    72.7051    13.1981 H            1 RF2237   0.0000
    23 H5          31.4098    76.2979     7.8937 H            1 RF2237   0.0000
    24 H6          30.2322    78.3672     7.7497 H            1 RF2237   0.0000
    25 H7          29.7264    79.5675     9.7648 H            1 RF2237   0.0000
    26 H8          30.4072    78.6750    11.8769 H            1 RF2237   0.0000
    27 H9          31.5827    76.5940    12.0134 H            1 RF2237   0.0000
    28 H10         32.1454    74.4753    11.9685 H            1 RF2237   0.0000
@<TRIPOS>BOND
     1    1    2      ar
     2    1    7      ar
     3    2    3      ar
     4    3    4       1
     5    3    5      ar
     6    5    6      ar
     7    6    7      ar
     8    7    8       1
     9    8    9       1
    10    8   10       2
    11    9   12       1
    12   10   11       1
    13   11   12       2
    14   12   13       1
    15   13   14      ar
    16   13   18      ar
    17   14   15      ar
    18   15   16      ar
    19   16   17      ar
    20   17   18      ar
    21    1   19       1
    22    2   20       1
    23    5   21       1
    24    6   22       1
    25   18   27       1
    26   14   23       1
    27   15   24       1
    28   16   25       1
    29   17   26       1
    30    9   28       1
@<TRIPOS>SUBSTRUCTURE
     1 RF2237      1 GROUP             4 A     RF2     0 **** RF2 A 237
