@<TRIPOS>MOLECULE
1qtm_TTP_1_ligand
   41    42     1     0     0
SMALL
NO_CHARGES


@<TRIPOS>ATOM
     1 PA          -4.1020    25.3440    -3.8280 P.3          1 TTP113   0.0000
     2 O1A         -2.9340    25.4280    -4.7390 O.co2        1 TTP113   0.0000
     3 O2A         -3.9510    25.5210    -2.4070 O.co2        1 TTP113  -1.0000
     4 O3A         -4.6990    23.9400    -3.9490 O.3          1 TTP113   0.0000
     5 PB          -5.5080    23.0580    -2.8880 P.3          1 TTP113   0.0000
     6 O1B         -6.3740    22.2560    -3.6800 O.co2        1 TTP113   0.0000
     7 O2B         -6.2000    23.8520    -1.9060 O.co2        1 TTP113  -1.0000
     8 O3B         -4.4250    22.0950    -2.1360 O.3          1 TTP113   0.0000
     9 PG          -3.0220    22.2760    -1.3200 P.3          1 TTP113   0.0000
    10 O1G         -2.6860    23.6380    -1.1640 O.co2        1 TTP113   0.0000
    11 O2G         -3.0770    21.4060    -0.1200 O.co2        1 TTP113  -1.0000
    12 O3G         -2.0030    21.7380    -2.2740 O.co2        1 TTP113  -1.0000
    13 O5'         -5.2400    26.2700    -4.3410 O.3          1 TTP113   0.0000
    14 C5'         -6.4980    26.6970    -3.6770 C.3          1 TTP113   0.0000
    15 C4'         -7.7530    26.4340    -4.4870 C.3          1 TTP113   0.0000
    16 O4'         -7.6740    27.1490    -5.7520 O.3          1 TTP113   0.0000
    17 C3'         -7.9620    24.9850    -4.8970 C.3          1 TTP113   0.0000
    18 C2'         -8.8560    25.1200    -6.1230 C.3          1 TTP113   0.0000
    19 C1'         -8.2990    26.3780    -6.7750 C.3          1 TTP113   0.0000
    20 N1          -7.3120    26.0560    -7.8410 N.pl3        1 TTP113   0.0000
    21 C2          -7.7470    26.0910    -9.1310 C.2          1 TTP113   0.0000
    22 O2          -8.9080    26.2350    -9.4590 O.2          1 TTP113   0.0000
    23 N3          -6.7630    25.9630   -10.0260 N.pl3        1 TTP113   0.0000
    24 C4          -5.4230    25.7850    -9.7710 C.2          1 TTP113   0.0000
    25 O4          -4.6650    25.7060   -10.6740 O.2          1 TTP113   0.0000
    26 C5          -5.0390    25.7040    -8.4130 C.2          1 TTP113   0.0000
    27 C5M         -3.5980    25.5070    -8.0560 C.3          1 TTP113   0.0000
    28 C6          -5.9930    25.8190    -7.5240 C.2          1 TTP113   0.0000
    29 H5'1        -6.4403    27.6794    -3.4994 H            1 TTP113   0.0000
    30 H5'2        -6.5765    26.2055    -2.8097 H            1 TTP113   0.0000
    31 H4'         -8.5510    26.7524    -3.9752 H            1 TTP113   0.0000
    32 H3'1        -8.4162    24.4657    -4.1731 H            1 TTP113   0.0000
    33 H3'2        -7.0941    24.5453    -5.1283 H            1 TTP113   0.0000
    34 H2'1        -9.8146    25.2377    -5.8638 H            1 TTP113   0.0000
    35 H2'2        -8.7688    24.3275    -6.7266 H            1 TTP113   0.0000
    36 H1'         -9.0514    26.9045    -7.1709 H            1 TTP113   0.0000
    37 H9          -7.0307    26.0008   -10.9888 H            1 TTP113   0.0000
    38 H5M1        -3.5028    25.4721    -7.0612 H            1 TTP113   0.0000
    39 H5M2        -3.2706    24.6493    -8.4525 H            1 TTP113   0.0000
    40 H5M3        -3.0584    26.2681    -8.4160 H            1 TTP113   0.0000
    41 H13         -5.7497    25.7295    -6.5582 H            1 TTP113   0.0000
@<TRIPOS>BOND
     1    1    2      ar
     2    1    3      ar
     3    1    4       1
     4    1   13       1
     5    4    5       1
     6    5    6      ar
     7    5    7      ar
     8    5    8       1
     9    8    9       1
    10    9   10      ar
    11    9   11      ar
    12    9   12      ar
    13   13   14       1
    14   14   15       1
    15   15   16       1
    16   15   17       1
    17   16   19       1
    18   17   18       1
    19   18   19       1
    20   19   20       1
    21   20   21       1
    22   20   28       1
    23   21   22       2
    24   21   23       1
    25   23   24       1
    26   24   25       2
    27   24   26       1
    28   26   27       1
    29   26   28       2
    30   28   41       1
    31   27   40       1
    32   27   39       1
    33   27   38       1
    34   14   29       1
    35   14   30       1
    36   15   31       1
    37   17   32       1
    38   17   33       1
    39   18   34       1
    40   18   35       1
    41   19   36       1
    42   23   37       1
@<TRIPOS>SUBSTRUCTURE
     1 TTP113      1 GROUP             4 A     TTP     0 **** TTP A 113
