1qtm_TTP_1_ligand
  -OEChem-08111718373D

 41 42  0     1  0  0  0  0  0999 V2000
   -5.7497   25.7295   -6.5582 H   0  0  0  0  0  0  0  0  0  0  0  0
   -8.4162   24.4657   -4.1731 H   0  0  0  0  0  0  0  0  0  0  0  0
   -7.0941   24.5453   -5.1283 H   0  0  0  0  0  0  0  0  0  0  0  0
   -9.8146   25.2377   -5.8638 H   0  0  0  0  0  0  0  0  0  0  0  0
   -8.7688   24.3275   -6.7266 H   0  0  0  0  0  0  0  0  0  0  0  0
   -8.5510   26.7524   -3.9752 H   0  0  0  0  0  0  0  0  0  0  0  0
   -9.0514   26.9045   -7.1709 H   0  0  0  0  0  0  0  0  0  0  0  0
   -3.5028   25.4721   -7.0612 H   0  0  0  0  0  0  0  0  0  0  0  0
   -3.2706   24.6493   -8.4525 H   0  0  0  0  0  0  0  0  0  0  0  0
   -3.0584   26.2681   -8.4160 H   0  0  0  0  0  0  0  0  0  0  0  0
   -6.4403   27.6794   -3.4994 H   0  0  0  0  0  0  0  0  0  0  0  0
   -6.5765   26.2055   -2.8097 H   0  0  0  0  0  0  0  0  0  0  0  0
   -7.0307   26.0008  -10.9888 H   0  0  0  0  0  0  0  0  0  0  0  0
   -5.9930   25.8190   -7.5240 C   0  0  0  0  0  0  0  0  0  0  0  0
   -5.0390   25.7040   -8.4130 C   0  0  0  0  0  0  0  0  0  0  0  0
   -5.4230   25.7850   -9.7710 C   0  0  0  0  0  0  0  0  0  0  0  0
   -7.7470   26.0910   -9.1310 C   0  0  0  0  0  0  0  0  0  0  0  0
   -7.9620   24.9850   -4.8970 C   0  0  1  0  0  0  0  0  0  0  0  0
   -8.8560   25.1200   -6.1230 C   0  0  2  0  0  0  0  0  0  0  0  0
   -7.7530   26.4340   -4.4870 C   0  0  1  0  0  0  0  0  0  0  0  0
   -8.2990   26.3780   -6.7750 C   0  0  2  0  0  0  0  0  0  0  0  0
   -3.5980   25.5070   -8.0560 C   0  0  0  0  0  0  0  0  0  0  0  0
   -6.4980   26.6970   -3.6770 C   0  0  1  0  0  0  0  0  0  0  0  0
   -6.7630   25.9630  -10.0260 N   0  0  0  0  0  0  0  0  0  0  0  0
   -7.3120   26.0560   -7.8410 N   0  0  0  0  0  0  0  0  0  0  0  0
   -3.0770   21.4060   -0.1200 O   0  5  0  0  0  0  0  0  0  0  0  0
   -2.0030   21.7380   -2.2740 O   0  5  0  0  0  0  0  0  0  0  0  0
   -3.9510   25.5210   -2.4070 O   0  5  0  0  0  0  0  0  0  0  0  0
   -6.2000   23.8520   -1.9060 O   0  5  0  0  0  0  0  0  0  0  0  0
   -4.6650   25.7060  -10.6740 O   0  0  0  0  0  0  0  0  0  0  0  0
   -8.9080   26.2350   -9.4590 O   0  0  0  0  0  0  0  0  0  0  0  0
   -2.6860   23.6380   -1.1640 O   0  0  0  0  0  0  0  0  0  0  0  0
   -2.9340   25.4280   -4.7390 O   0  0  0  0  0  0  0  0  0  0  0  0
   -6.3740   22.2560   -3.6800 O   0  0  0  0  0  0  0  0  0  0  0  0
   -7.6740   27.1490   -5.7520 O   0  0  0  0  0  0  0  0  0  0  0  0
   -5.2400   26.2700   -4.3410 O   0  0  0  0  0  0  0  0  0  0  0  0
   -4.4250   22.0950   -2.1360 O   0  0  0  0  0  0  0  0  0  0  0  0
   -4.6990   23.9400   -3.9490 O   0  0  0  0  0  0  0  0  0  0  0  0
   -3.0220   22.2760   -1.3200 P   0  0  0  0  0  0  0  0  0  0  0  0
   -4.1020   25.3440   -3.8280 P   0  0  2  0  0  0  0  0  0  0  0  0
   -5.5080   23.0580   -2.8880 P   0  0  2  0  0  0  0  0  0  0  0  0
  1 14  1  0  0  0  0
  2 18  1  0  0  0  0
  3 18  1  0  0  0  0
  4 19  1  0  0  0  0
  5 19  1  0  0  0  0
  6 20  1  0  0  0  0
  7 21  1  0  0  0  0
  8 22  1  0  0  0  0
  9 22  1  0  0  0  0
 10 22  1  0  0  0  0
 11 23  1  0  0  0  0
 12 23  1  0  0  0  0
 13 24  1  0  0  0  0
 14 15  2  0  0  0  0
 14 25  1  0  0  0  0
 15 16  1  0  0  0  0
 15 22  1  0  0  0  0
 16 24  1  0  0  0  0
 16 30  2  0  0  0  0
 17 24  1  0  0  0  0
 17 25  1  0  0  0  0
 17 31  2  0  0  0  0
 18 19  1  0  0  0  0
 18 20  1  0  0  0  0
 19 21  1  0  0  0  0
 20 23  1  0  0  0  0
 20 35  1  0  0  0  0
 21 25  1  0  0  0  0
 21 35  1  0  0  0  0
 23 36  1  0  0  0  0
 26 39  1  0  0  0  0
 27 39  1  0  0  0  0
 28 40  1  0  0  0  0
 29 41  1  0  0  0  0
 32 39  2  0  0  0  0
 33 40  2  0  0  0  0
 34 41  2  0  0  0  0
 36 40  1  0  0  0  0
 37 39  1  0  0  0  0
 37 41  1  0  0  0  0
 38 40  1  0  0  0  0
 38 41  1  0  0  0  0
M  CHG  4  28  -1  29  -1  26  -1  27  -1
M  END
> <scpdb_id>
1qtm_1

$$$$
