#    Name: 12454
#    Modification time : Tue Aug  8 21:39:47 2017

@<TRIPOS>MOLECULE
12454
   83     0    12     0     0
SMALL
NO_CHARGES


@<TRIPOS>ATOM
      1 N          22.5760   41.7880   32.4750 N.am      1 SEL1        0.0000 
      2 O          22.5760   41.7880   32.4750 O.2       2 ALL2        0.0000 
      3 O          16.3480   33.3540   36.0830 O.2       2 ALL2        0.0000 
      4 OD1        16.3480   33.3540   36.0830 O.co2     3 ASL4        0.0000 
      5 CA         22.3280   37.8300   26.4730 C.3       4 GLL5        0.0000 
      6 CA         22.8310   37.4760   27.8720 C.3       4 GLL5        0.0000 
      7 CA         20.0530   35.2630   27.9140 C.3       4 GLL5        0.0000 
      8 CA         19.4740   34.1760   27.2650 C.3       4 GLL5        0.0000 
      9 CA         20.3150   33.2140   26.7010 C.3       4 GLL5        0.0000 
     10 CA         22.2720   34.4390   27.4850 C.3       4 GLL5        0.0000 
     11 CA         22.2880   38.1710   31.9230 C.3       4 GLL5        0.0000 
     12 CA         22.5500   39.4020   32.5310 C.3       4 GLL5        0.0000 
     13 CA         21.8170   40.5380   30.5550 C.3       4 GLL5        0.0000 
     14 CA         19.5320   36.5250   31.4830 C.3       4 GLL5        0.0000 
     15 CA         18.8410   35.6580   32.3350 C.3       4 GLL5        0.0000 
     16 CA         17.6270   34.0990   34.1790 C.3       4 GLL5        0.0000 
     17 CA         20.4560   33.9020   31.9590 C.3       4 GLL5        0.0000 
     18 CA         21.1330   34.7600   31.0820 C.3       4 GLL5        0.0000 
     19 CA         21.6990   33.3470   26.8270 C.3       4 GLL5        0.0000 
     20 N          21.1600   44.8830   32.7610 N.am      5 SEP1        0.0000 
     21 N          24.5750   44.1240   32.6720 N.am      5 SEP1        0.0000 
     22 O          22.1290   41.6140   35.1340 O.2       6 ALP2        0.0000 
     23 O          17.7370   34.5150   38.0610 O.2       6 ALP2        0.0000 
     24 OD1        19.0350   33.1080   39.0120 O.co2     7 ASP4        0.0000 
     25 OD1        17.7370   34.5150   38.0610 O.co2     7 ASP4        0.0000 
     26 CA         18.5870   38.8850   25.1660 C.3       8 GLP5        0.0000 
     27 CA         21.3180   36.9440   22.9100 C.3       8 GLP5        0.0000 
     28 CA         23.1610   40.4250   24.1880 C.3       8 GLP5        0.0000 
     29 CA         25.7710   34.9190   29.6580 C.3       8 GLP5        0.0000 
     30 CA         17.1500   38.4280   29.0980 C.3       8 GLP5        0.0000 
     31 CA         17.0470   31.9840   29.1680 C.3       8 GLP5        0.0000 
     32 CA         20.0790   34.0400   22.5810 C.3       8 GLP5        0.0000 
     33 CA         18.4390   30.4610   24.2110 C.3       8 GLP5        0.0000 
     34 CA         18.3410   31.5270   29.8950 C.3       8 GLP5        0.0000 
     35 CA         24.8910   34.8260   32.0280 C.3       8 GLP5        0.0000 
     36 CA         25.8120   40.2820   35.0120 C.3       8 GLP5        0.0000 
     37 CA         24.0930   42.0690   27.3880 C.3       8 GLP5        0.0000 
     38 CA         18.0300   40.0300   33.1580 C.3       8 GLP5        0.0000 
     39 CA         16.4330   33.1800   29.8670 C.3       8 GLP5        0.0000 
     40 CA         20.1040   37.3030   34.9300 C.3       8 GLP5        0.0000 
     41 CA         14.9830   36.1290   32.0630 C.3       8 GLP5        0.0000 
     42 CA         22.0310   31.9250   35.4820 C.3       8 GLP5        0.0000 
     43 CA         25.7590   39.3550   28.8630 C.3       8 GLP5        0.0000 
     44 CA         26.2620   36.5060   25.2820 C.3       8 GLP5        0.0000 
     45 CA         23.6950   30.8530   29.2720 C.3       8 GLP5        0.0000 
     46 CA         25.3200   33.3150   26.2020 C.3       8 GLP5        0.0000 
     47 CA         18.3230   41.9390   31.6030 C.3       8 GLP5        0.0000 
     48 CA         22.2370   30.8010   30.2800 C.3       8 GLP5        0.0000 
     49 N          21.8680   43.3355   32.6180 N.am      9 SEC1        0.0000 
     50 N          23.5755   42.9560   32.5735 N.am      9 SEC1        0.0000 
     51 O          22.3525   41.7010   33.8045 O.2      10 ALC2        0.0000 
     52 O          17.0425   33.9345   37.0720 O.2      10 ALC2        0.0000 
     53 OD1        17.6915   33.2310   37.5475 O.co2    11 ASC4        0.0000 
     54 OD1        17.0425   33.9345   37.0720 O.co2    11 ASC4        0.0000 
     55 CA         20.4575   38.3575   25.8195 C.3      12 GLC5        0.0000 
     56 CA         21.8230   37.3870   24.6915 C.3      12 GLC5        0.0000 
     57 CA         22.7445   39.1275   25.3305 C.3      12 GLC5        0.0000 
     58 CA         24.3010   36.1975   28.7650 C.3      12 GLC5        0.0000 
     59 CA         18.6015   36.8455   28.5060 C.3      12 GLC5        0.0000 
     60 CA         18.2605   33.0800   28.2165 C.3      12 GLC5        0.0000 
     61 CA         20.1970   33.6270   24.6410 C.3      12 GLC5        0.0000 
     62 CA         19.3770   31.8375   25.4560 C.3      12 GLC5        0.0000 
     63 CA         19.3280   32.3705   28.2980 C.3      12 GLC5        0.0000 
     64 CA         24.0215   34.6790   28.5715 C.3      12 GLC5        0.0000 
     65 CA         23.5895   36.4985   31.9755 C.3      12 GLC5        0.0000 
     66 CA         24.1810   39.8420   33.7715 C.3      12 GLC5        0.0000 
     67 CA         22.9550   41.3035   28.9715 C.3      12 GLC5        0.0000 
     68 CA         18.3410   37.4765   30.2905 C.3      12 GLC5        0.0000 
     69 CA         18.7810   38.2775   32.3205 C.3      12 GLC5        0.0000 
     70 CA         17.6370   34.4190   31.1010 C.3      12 GLC5        0.0000 
     71 CA         18.8655   35.7010   34.5545 C.3      12 GLC5        0.0000 
     72 CA         16.3050   35.1140   33.1210 C.3      12 GLC5        0.0000 
     73 CA         21.2435   32.9135   33.7205 C.3      12 GLC5        0.0000 
     74 CA         23.0120   34.7930   31.5550 C.3      12 GLC5        0.0000 
     75 CA         24.1693   38.5040   28.0177 C.3      12 GLC5        0.0000 
     76 CA         24.4208   37.0795   26.2272 C.3      12 GLC5        0.0000 
     77 CA         22.8403   32.3730   28.2140 C.3      12 GLC5        0.0000 
     78 CA         23.6528   33.6040   26.6790 C.3      12 GLC5        0.0000 
     79 CA         21.2615   38.0447   33.5785 C.3      12 GLC5        0.0000 
     80 CA         20.0694   40.9391   31.0919 C.3      12 GLC5        0.0000 
     81 CA         21.5157   32.5660   30.9002 C.3      12 GLC5        0.0000 
     82 CA         19.4220   32.9854   30.7851 C.3      12 GLC5        0.0000 
     83 CA         19.6860   36.3970   33.5143 C.3      12 GLC5        0.0000 
@<TRIPOS>BOND
@<TRIPOS>SUBSTRUCTURE
     1 SEL1        1 GROUP        1 Z    SEL  0     ROOT SEL Z 0
     2 ALL2        2 GROUP        1 Z    ALL  0     **** ALL Z 1
     3 ASL4        4 GROUP        1 Z    ASL  0     **** ASL Z 3
     4 GLL5        5 GROUP        1 Z    GLL  0     **** GLL Z 4
     5 SEP1       20 GROUP        1 Z    SEP  0     **** SEP Z 7
     6 ALP2       22 GROUP        1 Z    ALP  0     **** ALP Z 8
     7 ASP4       24 GROUP        1 Z    ASP  0     **** ASP Z 10
     8 GLP5       26 GROUP        1 Z    GLP  0     **** GLP Z 11
     9 SEC1       49 GROUP        1 Z    SEC  0     **** SEC Z 14
    10 ALC2       51 GROUP        1 Z    ALC  0     **** ALC Z 15
    11 ASC4       53 GROUP        1 Z    ASC  0     **** ASC Z 17
    12 GLC5       55 GROUP        1 Z    GLC  0     **** GLC Z 18
@<TRIPOS>SET

