#    Name: 31327
#    Modification time : Wed Aug  9 01:10:13 2017

@<TRIPOS>MOLECULE
31327
   17     0     6     0     0
SMALL
NO_CHARGES


@<TRIPOS>ATOM
      1 N          32.4000   75.7790    9.4590 N.am      1 SEL1        0.0000 
      2 CA         33.5260   71.9530   10.9420 C.3       2 GLL5        0.0000 
      3 CA         32.1780   72.4660   12.9940 C.3       2 GLL5        0.0000 
      4 CA         33.2400   65.7390   13.8520 C.3       2 GLL5        0.0000 
      5 CA         33.5050   71.8790   12.5000 C.3       2 GLL5        0.0000 
      6 N          35.1790   75.9350    8.4300 N.am      3 SEP1        0.0000 
      7 CA         35.5880   72.1300    7.4430 C.3       4 GLP5        0.0000 
      8 CA         28.9560   70.8850   14.6540 C.3       4 GLP5        0.0000 
      9 CA         29.1450   72.9760   10.8330 C.3       4 GLP5        0.0000 
     10 CA         35.1890   66.8490   17.2990 C.3       4 GLP5        0.0000 
     11 CA         36.7540   74.1050   11.9470 C.3       4 GLP5        0.0000 
     12 N          33.7895   75.8570    8.9445 N.am      5 SEC1        0.0000 
     13 CA         34.5570   72.0415    9.1925 C.3       6 GLC5        0.0000 
     14 CA         30.5670   71.6755   13.8240 C.3       6 GLC5        0.0000 
     15 CA         30.6615   72.7210   11.9135 C.3       6 GLC5        0.0000 
     16 CA         34.2145   66.2940   15.5755 C.3       6 GLC5        0.0000 
     17 CA         35.1347   73.0105   11.8340 C.3       6 GLC5        0.0000 
@<TRIPOS>BOND
@<TRIPOS>SUBSTRUCTURE
     1 SEL1        1 GROUP        1 Z    SEL  0     ROOT SEL Z 0
     2 GLL5        2 GROUP        1 Z    GLL  0     **** GLL Z 4
     3 SEP1        6 GROUP        1 Z    SEP  0     **** SEP Z 7
     4 GLP5        7 GROUP        1 Z    GLP  0     **** GLP Z 11
     5 SEC1       12 GROUP        1 Z    SEC  0     **** SEC Z 14
     6 GLC5       13 GROUP        1 Z    GLC  0     **** GLC Z 18
@<TRIPOS>SET

