3o8g_O8G_1_ligand
  -OEChem-08111718373D

 36 38  0     1  0  0  0  0  0999 V2000
   33.3451   64.5872   10.6579 H   0  0  0  0  0  0  0  0  0  0  0  0
   33.6010   66.9950   10.6743 H   0  0  0  0  0  0  0  0  0  0  0  0
   33.1184   63.5151   12.8731 H   0  0  0  0  0  0  0  0  0  0  0  0
   34.3462   71.4931   10.6019 H   0  0  0  0  0  0  0  0  0  0  0  0
   32.7134   71.4963   10.5800 H   0  0  0  0  0  0  0  0  0  0  0  0
   31.4178   71.9814   12.5612 H   0  0  0  0  0  0  0  0  0  0  0  0
   32.1172   72.3627   13.9868 H   0  0  0  0  0  0  0  0  0  0  0  0
   33.3269   73.4055    9.5020 H   0  0  0  0  0  0  0  0  0  0  0  0
   34.4515   73.7613   10.6313 H   0  0  0  0  0  0  0  0  0  0  0  0
   31.1637   74.2701   12.7461 H   0  0  0  0  0  0  0  0  0  0  0  0
   32.7031   74.4664   13.2545 H   0  0  0  0  0  0  0  0  0  0  0  0
   34.2677   72.4071   12.8735 H   0  0  0  0  0  0  0  0  0  0  0  0
   31.5841   76.9142   12.0118 H   0  0  0  0  0  0  0  0  0  0  0  0
   30.3961   75.8110   11.8165 H   0  0  0  0  0  0  0  0  0  0  0  0
   33.3460   65.1090   11.5110 C   0  0  0  0  0  0  0  0  0  0  0  0
   33.4810   66.4560   11.5080 C   0  0  0  0  0  0  0  0  0  0  0  0
   33.2130   64.4960   12.7030 C   0  0  0  0  0  0  0  0  0  0  0  0
   33.4380   66.9920   12.7280 C   0  0  0  0  0  0  0  0  0  0  0  0
   33.5130   68.3280   13.1060 C   0  0  0  0  0  0  0  0  0  0  0  0
   33.5700   70.4560   13.0110 C   0  0  0  0  0  0  0  0  0  0  0  0
   32.0750   75.4260   10.6050 C   0  0  0  0  0  0  0  0  0  0  0  0
   33.5260   71.9530   10.9420 C   0  0  2  0  0  0  0  0  0  0  0  0
   32.1780   72.4660   12.9940 C   0  0  2  0  0  0  0  0  0  0  0  0
   33.5350   73.3910   10.4800 C   0  0  2  0  0  0  0  0  0  0  0  0
   32.1080   73.9630   12.6280 C   0  0  1  0  0  0  0  0  0  0  0  0
   33.5050   71.8790   12.5000 C   0  0  1  0  0  0  0  0  0  0  0  0
   31.0870   76.3590   11.3450 C   0  0  2  0  0  0  0  0  0  0  0  0
   31.5150   79.1250    9.7240 N   0  5  0  0  0  0  0  0  0  0  0  0
   33.4510   69.3670   12.2690 N   0  0  0  0  0  0  0  0  0  0  0  0
   33.6800   68.7530   14.3610 N   0  0  0  0  0  0  0  0  0  0  0  0
   30.4250   77.2490   10.3440 N   0  0  0  0  0  0  0  0  0  0  0  0
   30.9770   78.1920   10.0460 N   0  3  0  0  0  0  0  0  0  0  0  0
   32.5430   74.2860   11.1860 N   0  0  0  0  0  0  0  0  0  0  0  0
   32.4000   75.7790    9.4590 O   0  0  0  0  0  0  0  0  0  0  0  0
   33.7250   70.1320   14.3310 O   0  0  0  0  0  0  0  0  0  0  0  0
   33.2400   65.7390   13.8520 S   0  0  0  0  0  0  0  0  0  0  0  0
  1 15  1  0  0  0  0
  2 16  1  0  0  0  0
  3 17  1  0  0  0  0
  4 22  1  0  0  0  0
  5 22  1  0  0  0  0
  6 23  1  0  0  0  0
  7 23  1  0  0  0  0
  8 24  1  0  0  0  0
  9 24  1  0  0  0  0
 10 25  1  0  0  0  0
 11 25  1  0  0  0  0
 12 26  1  0  0  0  0
 13 27  1  0  0  0  0
 14 27  1  0  0  0  0
 15 16  1  0  0  0  0
 15 17  2  0  0  0  0
 16 18  2  0  0  0  0
 17 36  1  0  0  0  0
 18 19  1  0  0  0  0
 18 36  1  0  0  0  0
 19 29  1  0  0  0  0
 19 30  2  0  0  0  0
 20 26  1  0  0  0  0
 20 29  2  0  0  0  0
 20 35  1  0  0  0  0
 21 27  1  0  0  0  0
 21 33  1  0  0  0  0
 21 34  2  0  0  0  0
 22 24  1  0  0  0  0
 22 26  1  0  0  0  0
 23 25  1  0  0  0  0
 23 26  1  0  0  0  0
 24 33  1  0  0  0  0
 25 33  1  0  0  0  0
 27 31  1  0  0  0  0
 28 32  2  0  0  0  0
 30 35  1  0  0  0  0
 31 32  2  0  0  0  0
M  CHG  2  32   1  28  -1
M  END
> <scpdb_id>
3o8g_1

$$$$
