3dr1_C5D_1_ligand
  -OEChem-08111718373D

 65 66  0     1  0  0  0  0  0999 V2000
   -0.4474   36.8981   39.2690 H   0  0  0  0  0  0  0  0  0  0  0  0
    1.9665   35.4290   39.8322 H   0  0  0  0  0  0  0  0  0  0  0  0
   -0.4102   34.2928   38.7416 H   0  0  0  0  0  0  0  0  0  0  0  0
    0.2304   39.4411   37.4358 H   0  0  0  0  0  0  0  0  0  0  0  0
   -0.6263   39.1423   38.7936 H   0  0  0  0  0  0  0  0  0  0  0  0
    3.0181   37.2794   38.5623 H   0  0  0  0  0  0  0  0  0  0  0  0
    2.6153   38.1853   37.2647 H   0  0  0  0  0  0  0  0  0  0  0  0
    2.6383   32.8773   40.8389 H   0  0  0  0  0  0  0  0  0  0  0  0
    3.2461   33.6904   39.5597 H   0  0  0  0  0  0  0  0  0  0  0  0
    3.4925   30.9461   40.0443 H   0  0  0  0  0  0  0  0  0  0  0  0
    4.1661   31.7725   38.8074 H   0  0  0  0  0  0  0  0  0  0  0  0
    2.4598   40.8428   37.6680 H   0  0  0  0  0  0  0  0  0  0  0  0
    2.8688   41.3812   39.1545 H   0  0  0  0  0  0  0  0  0  0  0  0
    0.6738   32.3611   39.7372 H   0  0  0  0  0  0  0  0  0  0  0  0
    0.4627   41.3006   38.8725 H   0  0  0  0  0  0  0  0  0  0  0  0
    3.3150   39.1825   39.8751 H   0  0  0  0  0  0  0  0  0  0  0  0
    0.7680   30.6282   39.7931 H   0  0  0  0  0  0  0  0  0  0  0  0
    0.7067   29.5809   38.5416 H   0  0  0  0  0  0  0  0  0  0  0  0
    1.8636   29.4223   39.6832 H   0  0  0  0  0  0  0  0  0  0  0  0
    0.1748   31.5899   36.2912 H   0  0  0  0  0  0  0  0  0  0  0  0
   -0.4693   31.4620   37.7863 H   0  0  0  0  0  0  0  0  0  0  0  0
   -0.3735   32.9218   37.0607 H   0  0  0  0  0  0  0  0  0  0  0  0
    3.1305   33.3846   37.0811 H   0  0  0  0  0  0  0  0  0  0  0  0
    2.2446   32.7183   35.8820 H   0  0  0  0  0  0  0  0  0  0  0  0
    1.6893   34.0348   36.6727 H   0  0  0  0  0  0  0  0  0  0  0  0
    2.0443   30.3466   35.5820 H   0  0  0  0  0  0  0  0  0  0  0  0
    2.0246   28.8983   36.3361 H   0  0  0  0  0  0  0  0  0  0  0  0
    3.8271   31.0017   37.0085 H   0  0  0  0  0  0  0  0  0  0  0  0
    3.6511   29.5914   37.8127 H   0  0  0  0  0  0  0  0  0  0  0  0
    0.0005   40.2021   40.8400 H   0  0  0  0  0  0  0  0  0  0  0  0
    4.6916   39.1825   37.4686 H   0  0  0  0  0  0  0  0  0  0  0  0
    4.9387   26.5764   34.4437 H   0  0  0  0  0  0  0  0  0  0  0  0
    3.5350   29.1460   35.0830 C   0  0  0  0  0  0  0  0  0  0  0  0
    4.2960   28.7210   34.2890 C   0  0  0  0  0  0  0  0  0  0  0  0
    1.0560   37.9470   38.6100 C   0  0  0  0  0  0  0  0  0  0  0  0
    0.5300   36.8220   39.0720 C   0  0  0  0  0  0  0  0  0  0  0  0
    1.0840   35.4600   39.3630 C   0  0  0  0  0  0  0  0  0  0  0  0
    0.5350   34.2990   39.0680 C   0  0  0  0  0  0  0  0  0  0  0  0
    0.2930   39.2530   38.4160 C   0  0  1  0  0  0  0  0  0  0  0  0
    2.5440   38.1060   38.2590 C   0  0  1  0  0  0  0  0  0  0  0  0
    2.6990   32.9020   39.8410 C   0  0  1  0  0  0  0  0  0  0  0  0
    3.3140   31.5850   39.2960 C   0  0  2  0  0  0  0  0  0  0  0  0
    2.4490   40.6300   38.6450 C   0  0  1  0  0  0  0  0  0  0  0  0
    1.2620   32.9630   39.1970 C   0  0  2  0  0  0  0  0  0  0  0  0
    0.9680   40.4710   39.1100 C   0  0  2  0  0  0  0  0  0  0  0  0
    3.2780   39.3320   38.8870 C   0  0  2  0  0  0  0  0  0  0  0  0
    2.2580   31.0090   38.3360 C   0  0  2  0  0  0  0  0  0  0  0  0
    1.4910   32.2570   37.8070 C   0  0  1  0  0  0  0  0  0  0  0  0
    1.3140   30.0760   39.1630 C   0  0  0  0  0  0  0  0  0  0  0  0
    0.0790   32.0380   37.1800 C   0  0  0  0  0  0  0  0  0  0  0  0
    2.2030   33.1820   36.7670 C   0  0  0  0  0  0  0  0  0  0  0  0
    2.6040   29.6600   36.0460 C   0  0  1  0  0  0  0  0  0  0  0  0
    3.1700   30.3130   37.3150 C   0  0  1  0  0  0  0  0  0  0  0  0
    5.2350   28.1960   33.3090 C   0  0  2  0  0  0  0  0  0  0  0  0
    6.4620   29.1310   33.1310 C   0  0  2  0  0  0  0  0  0  0  0  0
    4.4530   27.9430   31.9700 C   0  0  2  0  0  0  0  0  0  0  0  0
    0.9460   40.3050   40.5310 O   0  0  0  0  0  0  0  0  0  0  0  0
    4.6340   39.4720   38.4240 O   0  0  0  0  0  0  0  0  0  0  0  0
    5.6710   26.9600   33.8810 O   0  0  0  0  0  0  0  0  0  0  0  0
    7.3390   28.5800   32.2820 F   0  0  0  0  0  0  0  0  0  0  0  0
    7.0570   29.3030   34.3140 F   0  0  0  0  0  0  0  0  0  0  0  0
    6.0790   30.3220   32.6560 F   0  0  0  0  0  0  0  0  0  0  0  0
    5.2510   27.3970   31.0580 F   0  0  0  0  0  0  0  0  0  0  0  0
    3.9730   29.0940   31.4880 F   0  0  0  0  0  0  0  0  0  0  0  0
    3.4320   27.1160   32.1890 F   0  0  0  0  0  0  0  0  0  0  0  0
  1 36  1  0  0  0  0
  2 37  1  0  0  0  0
  3 38  1  0  0  0  0
  4 39  1  0  0  0  0
  5 39  1  0  0  0  0
  6 40  1  0  0  0  0
  7 40  1  0  0  0  0
  8 41  1  0  0  0  0
  9 41  1  0  0  0  0
 10 42  1  0  0  0  0
 11 42  1  0  0  0  0
 12 43  1  0  0  0  0
 13 43  1  0  0  0  0
 14 44  1  0  0  0  0
 15 45  1  0  0  0  0
 16 46  1  0  0  0  0
 17 49  1  0  0  0  0
 18 49  1  0  0  0  0
 19 49  1  0  0  0  0
 20 50  1  0  0  0  0
 21 50  1  0  0  0  0
 22 50  1  0  0  0  0
 23 51  1  0  0  0  0
 24 51  1  0  0  0  0
 25 51  1  0  0  0  0
 26 52  1  0  0  0  0
 27 52  1  0  0  0  0
 28 53  1  0  0  0  0
 29 53  1  0  0  0  0
 30 57  1  0  0  0  0
 31 58  1  0  0  0  0
 32 59  1  0  0  0  0
 33 34  3  0  0  0  0
 33 52  1  0  0  0  0
 34 54  1  0  0  0  0
 35 36  2  0  0  0  0
 35 39  1  0  0  0  0
 35 40  1  0  0  0  0
 36 37  1  0  0  0  0
 37 38  2  0  0  0  0
 38 44  1  0  0  0  0
 39 45  1  0  0  0  0
 40 46  1  0  0  0  0
 41 42  1  0  0  0  0
 41 44  1  0  0  0  0
 42 47  1  0  0  0  0
 43 45  1  0  0  0  0
 43 46  1  0  0  0  0
 44 48  1  0  0  0  0
 45 57  1  0  0  0  0
 46 58  1  0  0  0  0
 47 48  1  0  0  0  0
 47 49  1  0  0  0  0
 47 53  1  0  0  0  0
 48 50  1  0  0  0  0
 48 51  1  0  0  0  0
 52 53  1  0  0  0  0
 54 55  1  0  0  0  0
 54 56  1  0  0  0  0
 54 59  1  0  0  0  0
 55 60  1  0  0  0  0
 55 61  1  0  0  0  0
 55 62  1  0  0  0  0
 56 63  1  0  0  0  0
 56 64  1  0  0  0  0
 56 65  1  0  0  0  0
M  END
> <scpdb_id>
3dr1_1

$$$$
