@<TRIPOS>MOLECULE
1sxj_AGS_1_ligand
   43    45     1     0     0
SMALL
NO_CHARGES


@<TRIPOS>ATOM
     1 PG          29.2400    45.6850    58.2950 P.3          1 AGS801   0.0000
     2 S1G         29.9720    44.8030    57.0300 S.2          1 AGS801   0.0000
     3 O2G         27.7380    45.7190    58.2000 O.co2        1 AGS801  -1.0000
     4 O3G         29.8030    47.1330    58.2880 O.co2        1 AGS801  -1.0000
     5 PB          31.0080    44.5540    60.3780 P.3          1 AGS801   0.0000
     6 O1B         32.0180    45.5280    59.8740 O.co2        1 AGS801   0.0000
     7 O2B         31.2850    43.0890    60.2770 O.co2        1 AGS801  -1.0000
     8 O3B         29.6520    44.9210    59.6740 O.3          1 AGS801   0.0000
     9 PA          31.5090    45.5740    63.0820 P.3          1 AGS801   0.0000
    10 O1A         31.6940    47.0540    62.8760 O.co2        1 AGS801   0.0000
    11 O2A         32.7870    44.7910    63.1810 O.co2        1 AGS801  -1.0000
    12 O3A         30.6790    44.9160    61.8790 O.3          1 AGS801   0.0000
    13 O5'         30.5150    45.2020    64.3100 O.3          1 AGS801   0.0000
    14 C5'         29.6060    46.2430    64.7750 C.3          1 AGS801   0.0000
    15 C4'         29.2210    46.0560    66.2490 C.3          1 AGS801   0.0000
    16 O4'         28.7150    44.6750    66.4010 O.3          1 AGS801   0.0000
    17 C3'         30.4030    46.1540    67.2290 C.3          1 AGS801   0.0000
    18 O3'         30.5950    47.4680    67.7680 O.3          1 AGS801   0.0000
    19 C2'         30.1180    45.0450    68.2630 C.3          1 AGS801   0.0000
    20 O2'         29.4980    45.4900    69.4530 O.3          1 AGS801   0.0000
    21 C1'         29.2700    44.0320    67.5570 C.3          1 AGS801   0.0000
    22 N9          30.0370    42.8060    67.0490 N.pl3        1 AGS801   0.0000
    23 C8          30.0630    42.4780    65.7050 C.2          1 AGS801   0.0000
    24 N7          30.7590    41.3980    65.3740 N.2          1 AGS801   0.0000
    25 C5          31.2470    40.9570    66.5680 C.ar         1 AGS801   0.0000
    26 C6          32.0850    39.8320    66.9350 C.ar         1 AGS801   0.0000
    27 N6          32.5800    38.9290    66.0510 N.pl3        1 AGS801   0.0000
    28 N1          32.3910    39.6890    68.2670 N.ar         1 AGS801   0.0000
    29 C2          31.9030    40.5890    69.1890 C.ar         1 AGS801   0.0000
    30 N3          31.1140    41.6700    68.9650 N.ar         1 AGS801   0.0000
    31 C4          30.8090    41.8140    67.6320 C.ar         1 AGS801   0.0000
    32 H5'1        28.7753    46.2178    64.2189 H            1 AGS801   0.0000
    33 H5'2        30.0518    47.1318    64.6683 H            1 AGS801   0.0000
    34 H4'         28.5098    46.7114    66.5032 H            1 AGS801   0.0000
    35 H3'         31.2338    45.9028    66.7323 H            1 AGS801   0.0000
    36 H5          31.3750    47.4609    68.3937 H            1 AGS801   0.0000
    37 H2'         30.9863    44.6122    68.5053 H            1 AGS801   0.0000
    38 H7          29.3529    46.4782    69.4038 H            1 AGS801   0.0000
    39 H1'         28.5305    43.7361    68.1616 H            1 AGS801   0.0000
    40 H9          29.5829    43.0257    65.0198 H            1 AGS801   0.0000
    41 H10         33.1528    38.1756    66.3738 H            1 AGS801   0.0000
    42 H11         32.3719    39.0171    65.0769 H            1 AGS801   0.0000
    43 H12         32.1623    40.4254    70.1408 H            1 AGS801   0.0000
@<TRIPOS>BOND
     1    1    2       2
     2    1    3      ar
     3    1    4      ar
     4    1    8       1
     5    5    6      ar
     6    5    7      ar
     7    5    8       1
     8    5   12       1
     9    9   10      ar
    10    9   11      ar
    11    9   12       1
    12    9   13       1
    13   13   14       1
    14   14   15       1
    15   15   16       1
    16   15   17       1
    17   16   21       1
    18   17   18       1
    19   17   19       1
    20   19   20       1
    21   19   21       1
    22   21   22       1
    23   22   23       1
    24   22   31       1
    25   23   24       2
    26   24   25       1
    27   25   26      ar
    28   25   31      ar
    29   26   27       1
    30   26   28      ar
    31   28   29      ar
    32   29   30      ar
    33   30   31      ar
    34   29   43       1
    35   27   42       1
    36   27   41       1
    37   23   40       1
    38   14   32       1
    39   14   33       1
    40   15   34       1
    41   17   35       1
    42   18   36       1
    43   19   37       1
    44   20   38       1
    45   21   39       1
@<TRIPOS>SUBSTRUCTURE
     1 AGS801      1 GROUP             4 A     AGS     0 **** AGS A 801
