3hq5_GKK_1_ligand
  -OEChem-08111718373D

 47 49  0     1  0  0  0  0  0999 V2000
   -4.4295  -11.3283   22.3736 H   0  0  0  0  0  0  0  0  0  0  0  0
   -2.8631  -11.5862   20.6260 H   0  0  0  0  0  0  0  0  0  0  0  0
   -5.3467   -7.9166   28.9296 H   0  0  0  0  0  0  0  0  0  0  0  0
   -4.0994   -9.6579   23.9951 H   0  0  0  0  0  0  0  0  0  0  0  0
   -0.9660  -10.2073   20.5383 H   0  0  0  0  0  0  0  0  0  0  0  0
   -5.0925   -6.9197   26.8358 H   0  0  0  0  0  0  0  0  0  0  0  0
   -2.0667   -9.5083   25.9886 H   0  0  0  0  0  0  0  0  0  0  0  0
   -4.0732   -4.6285   25.7947 H   0  0  0  0  0  0  0  0  0  0  0  0
   -2.6027   -5.3169   25.6204 H   0  0  0  0  0  0  0  0  0  0  0  0
   -2.2197   -3.7208   24.1336 H   0  0  0  0  0  0  0  0  0  0  0  0
   -3.8085   -3.3738   23.9852 H   0  0  0  0  0  0  0  0  0  0  0  0
   -5.0061   -5.8722   22.7431 H   0  0  0  0  0  0  0  0  0  0  0  0
   -3.7341   -6.8865   22.6012 H   0  0  0  0  0  0  0  0  0  0  0  0
   -5.0398   -6.3519   24.8842 H   0  0  0  0  0  0  0  0  0  0  0  0
   -3.5013   -4.8253   20.8518 H   0  0  0  0  0  0  0  0  0  0  0  0
   -4.3418   -3.7218   21.7136 H   0  0  0  0  0  0  0  0  0  0  0  0
   -2.7366   -3.5284   21.4842 H   0  0  0  0  0  0  0  0  0  0  0  0
   -1.7877   -7.0834   23.8432 H   0  0  0  0  0  0  0  0  0  0  0  0
   -1.5418   -8.2438   24.9655 H   0  0  0  0  0  0  0  0  0  0  0  0
   -4.0740   -9.8230   29.9950 C   0  0  0  0  0  0  0  0  0  0  0  0
   -3.6260  -10.7350   22.3250 C   0  0  0  0  0  0  0  0  0  0  0  0
   -2.7230  -10.8860   21.3260 C   0  0  0  0  0  0  0  0  0  0  0  0
   -4.6450   -8.2630   28.3070 C   0  0  0  0  0  0  0  0  0  0  0  0
   -3.4280   -9.7670   23.2620 C   0  0  0  0  0  0  0  0  0  0  0  0
   -1.6290  -10.0860   21.2770 C   0  0  0  0  0  0  0  0  0  0  0  0
   -4.4960   -7.6820   27.0870 C   0  0  0  0  0  0  0  0  0  0  0  0
   -2.7680   -9.1680   26.6150 C   0  0  0  0  0  0  0  0  0  0  0  0
   -3.8610   -9.3070   28.7030 C   0  0  0  0  0  0  0  0  0  0  0  0
   -2.3420   -8.9410   23.2320 C   0  0  0  0  0  0  0  0  0  0  0  0
   -1.4130   -9.1110   22.2230 C   0  0  0  0  0  0  0  0  0  0  0  0
   -3.5570   -8.1090   26.1970 C   0  0  0  0  0  0  0  0  0  0  0  0
   -2.8930   -9.7820   27.8470 C   0  0  0  0  0  0  0  0  0  0  0  0
   -3.4470   -5.0640   25.1480 C   0  0  2  0  0  0  0  0  0  0  0  0
   -3.1340   -4.1110   24.0250 C   0  0  2  0  0  0  0  0  0  0  0  0
   -4.0830   -6.0750   23.0700 C   0  0  2  0  0  0  0  0  0  0  0  0
   -4.0930   -6.2970   24.5670 C   0  0  1  0  0  0  0  0  0  0  0  0
   -3.4660   -4.1970   21.6290 C   0  0  0  0  0  0  0  0  0  0  0  0
   -2.1760   -7.8980   24.2740 C   0  0  2  0  0  0  0  0  0  0  0  0
   -0.1850   -8.2650   22.1000 C   0  0  1  0  0  0  0  0  0  0  0  0
   -4.2480  -10.2450   31.0510 N   0  0  0  0  0  0  0  0  0  0  0  0
   -3.3960   -7.5220   24.9300 N   0  0  1  0  0  0  0  0  0  0  0  0
   -3.2040   -4.9400   22.8360 N   0  3  1  0  0  0  0  0  0  0  0  0
    0.4690   -8.0600   23.1780 F   0  0  0  0  0  0  0  0  0  0  0  0
    0.7090   -8.7210   21.2870 F   0  0  0  0  0  0  0  0  0  0  0  0
   -0.3950   -7.0810   21.6910 F   0  0  0  0  0  0  0  0  0  0  0  0
   -1.8590  -11.0890   28.2970 Cl  0  0  0  0  0  0  0  0  0  0  0  0
   -2.2890   -5.3273   22.7231 H   0  0  0  0  0  0  0  0  0  0  0  0
  1 21  1  0  0  0  0
  2 22  1  0  0  0  0
  3 23  1  0  0  0  0
  4 24  1  0  0  0  0
  5 25  1  0  0  0  0
  6 26  1  0  0  0  0
  7 27  1  0  0  0  0
  8 33  1  0  0  0  0
  9 33  1  0  0  0  0
 10 34  1  0  0  0  0
 11 34  1  0  0  0  0
 12 35  1  0  0  0  0
 13 35  1  0  0  0  0
 14 36  1  0  0  0  0
 15 37  1  0  0  0  0
 16 37  1  0  0  0  0
 17 37  1  0  0  0  0
 18 38  1  0  0  0  0
 19 38  1  0  0  0  0
 20 28  1  0  0  0  0
 20 40  3  0  0  0  0
 21 22  2  0  0  0  0
 21 24  1  0  0  0  0
 22 25  1  0  0  0  0
 23 26  1  0  0  0  0
 23 28  2  0  0  0  0
 24 29  2  0  0  0  0
 25 30  2  0  0  0  0
 26 31  2  0  0  0  0
 27 31  1  0  0  0  0
 27 32  2  0  0  0  0
 28 32  1  0  0  0  0
 29 30  1  0  0  0  0
 29 38  1  0  0  0  0
 30 39  1  0  0  0  0
 31 41  1  0  0  0  0
 32 46  1  0  0  0  0
 33 34  1  0  0  0  0
 33 36  1  0  0  0  0
 34 42  1  0  0  0  0
 35 36  1  0  0  0  0
 35 42  1  0  0  0  0
 36 41  1  0  0  0  0
 37 42  1  0  0  0  0
 38 41  1  0  0  0  0
 39 43  1  0  0  0  0
 39 44  1  0  0  0  0
 39 45  1  0  0  0  0
 42 47  1  0  0  0  0
M  CHG  1  42   1
M  END
> <scpdb_id>
3hq5_1

$$$$
