#    Name: 22975
#    Modification time : Tue Aug  8 22:30:24 2017

@<TRIPOS>MOLECULE
22975
   31     0     3     0     0
SMALL
NO_CHARGES


@<TRIPOS>ATOM
      1 CA        -29.8390  -10.0610   -4.4870 C.3       1 GLL5        0.0000 
      2 CA        -28.9960   -9.8940   -5.5770 C.3       1 GLL5        0.0000 
      3 CA        -28.7450  -10.9420   -6.4610 C.3       1 GLL5        0.0000 
      4 CA        -27.6410  -11.9560   -8.4620 C.3       1 GLL5        0.0000 
      5 CA        -27.3940  -11.5340  -10.9410 C.3       1 GLL5        0.0000 
      6 CA        -29.4630   -7.7510   -3.8440 C.3       1 GLL5        0.0000 
      7 CA        -30.0790   -8.9850   -3.6060 C.3       1 GLL5        0.0000 
      8 CA        -27.8800  -10.7880   -7.5430 C.3       1 GLL5        0.0000 
      9 CA        -27.9050  -11.0650   -0.8480 C.3       2 GLP5        0.0000 
     10 CA        -32.7440  -10.7010   -3.8050 C.3       2 GLP5        0.0000 
     11 CA        -32.3860  -11.7060   -8.5440 C.3       2 GLP5        0.0000 
     12 CA        -26.6620  -13.0350   -5.1600 C.3       2 GLP5        0.0000 
     13 CA        -27.7700   -9.5000  -14.6050 C.3       2 GLP5        0.0000 
     14 CA        -31.1600  -11.1050  -12.9470 C.3       2 GLP5        0.0000 
     15 CA        -27.8670  -12.8350   -4.2730 C.3       2 GLP5        0.0000 
     16 CA        -27.7570   -8.5700   -0.6140 C.3       2 GLP5        0.0000 
     17 CA        -31.1900  -11.1460   -7.7890 C.3       2 GLP5        0.0000 
     18 CA        -33.5130   -9.2890   -4.6270 C.3       2 GLP5        0.0000 
     19 CA        -28.8720  -10.5630   -2.6675 C.3       3 GLC5        0.0000 
     20 CA        -30.8700  -10.2975   -4.6910 C.3       3 GLC5        0.0000 
     21 CA        -30.5655  -11.3240   -7.5025 C.3       3 GLC5        0.0000 
     22 CA        -27.1515  -12.4955   -6.8110 C.3       3 GLC5        0.0000 
     23 CA        -27.5820  -10.5170  -12.7730 C.3       3 GLC5        0.0000 
     24 CA        -29.2770  -11.3195  -11.9440 C.3       3 GLC5        0.0000 
     25 CA        -28.2767  -11.0563   -4.9815 C.3       3 GLC5        0.0000 
     26 CA        -28.7640   -8.4690   -2.1695 C.3       3 GLC5        0.0000 
     27 CA        -28.9130  -11.1790   -4.1597 C.3       3 GLC5        0.0000 
     28 CA        -30.2264  -10.4076   -6.4387 C.3       3 GLC5        0.0000 
     29 CA        -31.6590   -9.2518   -4.3665 C.3       3 GLC5        0.0000 
     30 CA        -27.4100  -11.7986   -6.1040 C.3       3 GLC5        0.0000 
     31 CA        -29.3980  -11.1076   -7.9187 C.3       3 GLC5        0.0000 
@<TRIPOS>BOND
@<TRIPOS>SUBSTRUCTURE
     1 GLL5        1 GROUP        1 Z    GLL  0     ROOT GLL Z 4
     2 GLP5        9 GROUP        1 Z    GLP  0     **** GLP Z 11
     3 GLC5       19 GROUP        1 Z    GLC  0     **** GLC Z 18
@<TRIPOS>SET

