#    Name: 19670
#    Modification time : Wed Aug  9 00:40:16 2017

@<TRIPOS>MOLECULE
19670
   33     0     6     0     0
SMALL
NO_CHARGES


@<TRIPOS>ATOM
      1 O         123.2310  109.3010  -41.6100 O.2       1 ALL2        0.0000 
      2 CA        124.7320  101.9150  -44.8550 C.3       2 GLL5        0.0000 
      3 CA        125.4180  102.0860  -41.7660 C.3       2 GLL5        0.0000 
      4 CA        126.9350  101.9290  -41.6430 C.3       2 GLL5        0.0000 
      5 CA        124.6530  105.2950  -43.4270 C.3       2 GLL5        0.0000 
      6 CA        124.1840  104.5310  -45.9020 C.3       2 GLL5        0.0000 
      7 CA        124.1290  103.3890  -46.7440 C.3       2 GLL5        0.0000 
      8 CA        125.0000  104.5460  -42.2620 C.3       2 GLL5        0.0000 
      9 O         122.8550  108.1420  -39.1580 O.2       3 ALP2        0.0000 
     10 CA        126.7050   98.7250  -42.7510 C.3       4 GLP5        0.0000 
     11 CA        122.5940  101.1620  -39.5580 C.3       4 GLP5        0.0000 
     12 CA        129.8980  104.1410  -42.4830 C.3       4 GLP5        0.0000 
     13 CA        121.3150  105.3160  -41.5670 C.3       4 GLP5        0.0000 
     14 CA        120.5270  102.8550  -45.9240 C.3       4 GLP5        0.0000 
     15 CA        125.4180  104.8280  -49.4710 C.3       4 GLP5        0.0000 
     16 CA        121.0120  101.9180  -47.0120 C.3       4 GLP5        0.0000 
     17 CA        128.0100  105.5750  -43.2490 C.3       4 GLP5        0.0000 
     18 CA        126.8120  100.9420  -38.1290 C.3       4 GLP5        0.0000 
     19 CA        128.2370  101.7360  -46.5570 C.3       4 GLP5        0.0000 
     20 O         123.0430  108.7215  -40.3840 O.2       5 ALC2        0.0000 
     21 CA        125.7185  100.3200  -43.8030 C.3       6 GLC5        0.0000 
     22 CA        124.0060  101.6240  -40.6620 C.3       6 GLC5        0.0000 
     23 CA        128.4165  103.0350  -42.0630 C.3       6 GLC5        0.0000 
     24 CA        122.9495  105.0750  -42.7680 C.3       6 GLC5        0.0000 
     25 CA        122.4383  103.6535  -45.5652 C.3       6 GLC5        0.0000 
     26 CA        124.8484  103.9278  -47.8727 C.3       6 GLC5        0.0000 
     27 CA        122.7553  102.1233  -46.3410 C.3       6 GLC5        0.0000 
     28 CA        126.3468  104.7635  -43.6195 C.3       6 GLC5        0.0000 
     29 CA        126.4943  101.4748  -39.9167 C.3       6 GLC5        0.0000 
     30 CA        126.4407  100.3662  -42.2278 C.3       6 GLC5        0.0000 
     31 CA        126.4325  102.0733  -45.8043 C.3       6 GLC5        0.0000 
     32 CA        126.4269  105.8563  -42.7045 C.3       6 GLC5        0.0000 
     33 CA        123.0794  105.7268  -41.8635 C.3       6 GLC5        0.0000 
@<TRIPOS>BOND
@<TRIPOS>SUBSTRUCTURE
     1 ALL2        1 GROUP        1 Z    ALL  0     ROOT ALL Z 1
     2 GLL5        2 GROUP        1 Z    GLL  0     **** GLL Z 4
     3 ALP2        9 GROUP        1 Z    ALP  0     **** ALP Z 8
     4 GLP5       10 GROUP        1 Z    GLP  0     **** GLP Z 11
     5 ALC2       20 GROUP        1 Z    ALC  0     **** ALC Z 15
     6 GLC5       21 GROUP        1 Z    GLC  0     **** GLC Z 18
@<TRIPOS>SET

