@<TRIPOS>MOLECULE
2vuk_P83_1_ligand
   37    39     1     0     0
SMALL
NO_CHARGES


@<TRIPOS>ATOM
     1 C1         125.2080   105.1940   -40.9940 C.ar         1 P831291   0.0000
     2 C2         125.0670   106.6170   -40.9240 C.ar         1 P831291   0.0000
     3 C3         124.7230   107.3860   -42.0870 C.ar         1 P831291   0.0000
     4 C4         124.5170   106.7290   -43.3250 C.ar         1 P831291   0.0000
     5 C4A        124.6530   105.2950   -43.4270 C.ar         1 P831291   0.0000
     6 C4B        124.5150   104.3730   -44.5110 C.ar         1 P831291   0.0000
     7 C5         124.1840   104.5310   -45.9020 C.ar         1 P831291   0.0000
     8 C6         124.1290   103.3890   -46.7440 C.ar         1 P831291   0.0000
     9 C7         124.4010   102.0950   -46.2260 C.ar         1 P831291   0.0000
    10 C8         124.7320   101.9150   -44.8550 C.ar         1 P831291   0.0000
    11 C8A        124.7830   103.0700   -44.0110 C.ar         1 P831291   0.0000
    12 N9         125.0730   103.2080   -42.6510 N.pl3        1 P831291   0.0000
    13 C9A        125.0000   104.5460   -42.2620 C.ar         1 P831291   0.0000
    14 C91        125.4180   102.0860   -41.7660 C.3          1 P831291   0.0000
    15 C92        126.9350   101.9290   -41.6430 C.3          1 P831291   0.0000
    16 C31        124.6090   108.8950   -41.9140 C.3          1 P831291   0.0000
    17 N32        123.2310   109.3010   -41.6100 N.4          1 P831291   1.0000
    18 C33        123.1400   110.7510   -41.3370 C.3          1 P831291   0.0000
    19 H1         125.4455   104.6627   -40.1808 H            1 P831291   0.0000
    20 H2         125.2104   107.0831   -40.0510 H            1 P831291   0.0000
    21 H3         124.2753   107.2629   -44.1353 H            1 P831291   0.0000
    22 H4         123.9938   105.4396   -46.2737 H            1 P831291   0.0000
    23 H5         123.8966   103.4969   -47.7106 H            1 P831291   0.0000
    24 H6         124.3592   101.3011   -46.8326 H            1 P831291   0.0000
    25 H7         124.9244   101.0043   -44.4895 H            1 P831291   0.0000
    26 H8         125.0316   101.2433   -42.1410 H            1 P831291   0.0000
    27 H9         125.0324   102.2548   -40.8589 H            1 P831291   0.0000
    28 H10        127.1426   101.1610   -41.0372 H            1 P831291   0.0000
    29 H11        127.3266   101.7560   -42.5467 H            1 P831291   0.0000
    30 H12        127.3273   102.7674   -41.2647 H            1 P831291   0.0000
    31 H13        124.8999   109.3417   -42.7601 H            1 P831291   0.0000
    32 H14        125.2049   109.1817   -41.1638 H            1 P831291   0.0000
    33 H15        122.9144   108.7986   -40.8054 H            1 P831291   0.0000
    34 H16        122.1912   110.9931   -41.1343 H            1 P831291   0.0000
    35 H17        123.7171   110.9794   -40.5529 H            1 P831291   0.0000
    36 H18        123.4502   111.2613   -42.1391 H            1 P831291   0.0000
    37 H19        122.6475   109.0805   -42.3916 H            1 P831291   0.0000
@<TRIPOS>BOND
     1    1    2      ar
     2    1   13      ar
     3    2    3      ar
     4    3    4      ar
     5    3   16       1
     6    4    5      ar
     7    5    6       1
     8    5   13      ar
     9    6    7      ar
    10    6   11      ar
    11    7    8      ar
    12    8    9      ar
    13    9   10      ar
    14   10   11      ar
    15   11   12       1
    16   12   13       1
    17   12   14       1
    18   14   15       1
    19   16   17       1
    20   17   18       1
    21    1   19       1
    22    2   20       1
    23    4   21       1
    24    7   22       1
    25    8   23       1
    26    9   24       1
    27   10   25       1
    28   14   26       1
    29   14   27       1
    30   15   28       1
    31   15   29       1
    32   15   30       1
    33   16   31       1
    34   16   32       1
    35   17   33       1
    36   18   34       1
    37   18   35       1
    38   18   36       1
    39   17   37       1
@<TRIPOS>SUBSTRUCTURE
     1 P831291     1 GROUP             4 B     P83     0 **** P83 B1291
