2vuk_P83_1_ligand
  -OEChem-08111718373D

 37 39  0     1  0  0  0  0  0999 V2000
  123.8966  103.4969  -47.7106 H   0  0  0  0  0  0  0  0  0  0  0  0
  124.3592  101.3011  -46.8326 H   0  0  0  0  0  0  0  0  0  0  0  0
  123.9938  105.4396  -46.2737 H   0  0  0  0  0  0  0  0  0  0  0  0
  125.2104  107.0831  -40.0510 H   0  0  0  0  0  0  0  0  0  0  0  0
  124.9244  101.0043  -44.4895 H   0  0  0  0  0  0  0  0  0  0  0  0
  125.4455  104.6627  -40.1808 H   0  0  0  0  0  0  0  0  0  0  0  0
  124.2753  107.2629  -44.1353 H   0  0  0  0  0  0  0  0  0  0  0  0
  127.1426  101.1610  -41.0372 H   0  0  0  0  0  0  0  0  0  0  0  0
  127.3266  101.7560  -42.5467 H   0  0  0  0  0  0  0  0  0  0  0  0
  127.3273  102.7674  -41.2647 H   0  0  0  0  0  0  0  0  0  0  0  0
  122.1912  110.9931  -41.1343 H   0  0  0  0  0  0  0  0  0  0  0  0
  123.7171  110.9794  -40.5529 H   0  0  0  0  0  0  0  0  0  0  0  0
  123.4502  111.2613  -42.1391 H   0  0  0  0  0  0  0  0  0  0  0  0
  124.8999  109.3417  -42.7601 H   0  0  0  0  0  0  0  0  0  0  0  0
  125.2049  109.1817  -41.1638 H   0  0  0  0  0  0  0  0  0  0  0  0
  125.0316  101.2433  -42.1410 H   0  0  0  0  0  0  0  0  0  0  0  0
  125.0324  102.2548  -40.8589 H   0  0  0  0  0  0  0  0  0  0  0  0
  122.9144  108.7986  -40.8054 H   0  0  0  0  0  0  0  0  0  0  0  0
  124.1290  103.3890  -46.7440 C   0  0  0  0  0  0  0  0  0  0  0  0
  124.4010  102.0950  -46.2260 C   0  0  0  0  0  0  0  0  0  0  0  0
  124.1840  104.5310  -45.9020 C   0  0  0  0  0  0  0  0  0  0  0  0
  125.0670  106.6170  -40.9240 C   0  0  0  0  0  0  0  0  0  0  0  0
  124.7320  101.9150  -44.8550 C   0  0  0  0  0  0  0  0  0  0  0  0
  125.2080  105.1940  -40.9940 C   0  0  0  0  0  0  0  0  0  0  0  0
  124.5170  106.7290  -43.3250 C   0  0  0  0  0  0  0  0  0  0  0  0
  124.5150  104.3730  -44.5110 C   0  0  0  0  0  0  0  0  0  0  0  0
  124.6530  105.2950  -43.4270 C   0  0  0  0  0  0  0  0  0  0  0  0
  124.7230  107.3860  -42.0870 C   0  0  0  0  0  0  0  0  0  0  0  0
  124.7830  103.0700  -44.0110 C   0  0  0  0  0  0  0  0  0  0  0  0
  125.0000  104.5460  -42.2620 C   0  0  0  0  0  0  0  0  0  0  0  0
  126.9350  101.9290  -41.6430 C   0  0  0  0  0  0  0  0  0  0  0  0
  123.1400  110.7510  -41.3370 C   0  0  0  0  0  0  0  0  0  0  0  0
  124.6090  108.8950  -41.9140 C   0  0  2  0  0  0  0  0  0  0  0  0
  125.4180  102.0860  -41.7660 C   0  0  1  0  0  0  0  0  0  0  0  0
  125.0730  103.2080  -42.6510 N   0  0  0  0  0  0  0  0  0  0  0  0
  123.2310  109.3010  -41.6100 N   0  3  1  0  0  0  0  0  0  0  0  0
  122.6475  109.0805  -42.3916 H   0  0  0  0  0  0  0  0  0  0  0  0
  1 19  1  0  0  0  0
  2 20  1  0  0  0  0
  3 21  1  0  0  0  0
  4 22  1  0  0  0  0
  5 23  1  0  0  0  0
  6 24  1  0  0  0  0
  7 25  1  0  0  0  0
  8 31  1  0  0  0  0
  9 31  1  0  0  0  0
 10 31  1  0  0  0  0
 11 32  1  0  0  0  0
 12 32  1  0  0  0  0
 13 32  1  0  0  0  0
 14 33  1  0  0  0  0
 15 33  1  0  0  0  0
 16 34  1  0  0  0  0
 17 34  1  0  0  0  0
 18 36  1  0  0  0  0
 19 20  2  0  0  0  0
 19 21  1  0  0  0  0
 20 23  1  0  0  0  0
 21 26  2  0  0  0  0
 22 24  2  0  0  0  0
 22 28  1  0  0  0  0
 23 29  2  0  0  0  0
 24 30  1  0  0  0  0
 25 27  1  0  0  0  0
 25 28  2  0  0  0  0
 26 27  1  0  0  0  0
 26 29  1  0  0  0  0
 27 30  2  0  0  0  0
 28 33  1  0  0  0  0
 29 35  1  0  0  0  0
 30 35  1  0  0  0  0
 31 34  1  0  0  0  0
 32 36  1  0  0  0  0
 33 36  1  0  0  0  0
 34 35  1  0  0  0  0
 36 37  1  0  0  0  0
M  CHG  1  36   1
M  END
> <scpdb_id>
2vuk_1

$$$$
