#    Name: 39231
#    Modification time : Tue Aug  8 22:38:22 2017

@<TRIPOS>MOLECULE
39231
   43     0    12     0     0
SMALL
NO_CHARGES


@<TRIPOS>ATOM
      1 N         -36.5910  -17.0250    3.4350 N.am      1 SEL1        0.0000 
      2 N         -34.8690  -17.5700    4.6760 N.am      1 SEL1        0.0000 
      3 N         -40.2480  -17.7220    3.3270 N.am      1 SEL1        0.0000 
      4 NZ        -36.5910  -17.0250    3.4350 N.4       2 LYL3        0.0000 
      5 NZ        -34.8690  -17.5700    4.6760 N.4       2 LYL3        0.0000 
      6 CA        -42.9490  -22.6770    4.4560 C.3       3 GLL5        0.0000 
      7 CA        -44.7480  -19.4270    2.1880 C.3       3 GLL5        0.0000 
      8 CA        -36.0820  -20.1730    4.5620 C.3       3 GLL5        0.0000 
      9 CA        -44.1020  -18.2490    1.9370 C.3       3 GLL5        0.0000 
     10 CA        -42.8240  -18.0690    2.4050 C.3       3 GLL5        0.0000 
     11 Zn        -40.9650  -20.9970    4.5890 Zn        4 ZIL7        0.0000 
     12 Zn        -38.6060  -20.5300    5.9540 Zn        4 ZIL7        0.0000 
     13 N         -35.7180  -14.3720    3.5950 N.am      5 SEP1        0.0000 
     14 N         -34.2580  -14.8810    5.2630 N.am      5 SEP1        0.0000 
     15 N         -32.5610  -18.4680    3.7580 N.am      5 SEP1        0.0000 
     16 N         -40.6870  -15.6990    4.9520 N.am      5 SEP1        0.0000 
     17 NZ        -34.8650  -13.9780    4.5310 N.4       6 LYP3        0.0000 
     18 CA        -44.5160  -19.1830    6.5480 C.3       7 GLP5        0.0000 
     19 CA        -41.1710  -24.2390    1.0100 C.3       7 GLP5        0.0000 
     20 CA        -43.4670  -20.2620   -1.1590 C.3       7 GLP5        0.0000 
     21 CA        -35.2130  -19.3080    1.2370 C.3       7 GLP5        0.0000 
     22 CA        -34.5020  -19.6310    7.9880 C.3       7 GLP5        0.0000 
     23 CA        -34.1490  -24.1370    4.8360 C.3       7 GLP5        0.0000 
     24 CA        -44.5530  -16.3280   -1.2150 C.3       7 GLP5        0.0000 
     25 CA        -41.9300  -19.8360   -0.3870 C.3       7 GLP5        0.0000 
     26 Zn        -39.7010  -22.4990    5.8110 Zn        8 ZIP7        0.0000 
     27 N         -36.1545  -15.6985    3.5150 N.am      9 SEC1        0.0000 
     28 N         -35.2935  -15.9710    4.1355 N.am      9 SEC1        0.0000 
     29 N         -34.5635  -16.2255    4.9695 N.am      9 SEC1        0.0000 
     30 N         -33.7150  -18.0190    4.2170 N.am      9 SEC1        0.0000 
     31 N         -40.4675  -16.7105    4.1395 N.am      9 SEC1        0.0000 
     32 NZ        -35.7280  -15.5015    3.9830 N.4      10 LYC3        0.0000 
     33 NZ        -34.8670  -15.7740    4.6035 N.4      10 LYC3        0.0000 
     34 CA        -43.7325  -20.9300    5.5020 C.3      11 GLC5        0.0000 
     35 CA        -42.0600  -23.4580    2.7330 C.3      11 GLC5        0.0000 
     36 CA        -44.1075  -19.8445    0.5145 C.3      11 GLC5        0.0000 
     37 CA        -35.6475  -19.7405    2.8995 C.3      11 GLC5        0.0000 
     38 CA        -35.2920  -19.9020    6.2750 C.3      11 GLC5        0.0000 
     39 CA        -35.1155  -22.1550    4.6990 C.3      11 GLC5        0.0000 
     40 CA        -44.0080  -17.2435    0.4780 C.3      11 GLC5        0.0000 
     41 CA        -42.3384  -19.3539    1.2063 C.3      11 GLC5        0.0000 
     42 Zn        -40.3330  -21.7480    5.2000 Zn       12 ZIC7        0.0000 
     43 Zn        -39.1535  -21.5145    5.8825 Zn       12 ZIC7        0.0000 
@<TRIPOS>BOND
@<TRIPOS>SUBSTRUCTURE
     1 SEL1        1 GROUP        1 Z    SEL  0     ROOT SEL Z 0
     2 LYL3        4 GROUP        1 Z    LYL  0     **** LYL Z 2
     3 GLL5        6 GROUP        1 Z    GLL  0     **** GLL Z 4
     4 ZIL7       11 GROUP        1 Z    ZIL  0     **** ZIL Z 5
     5 SEP1       13 GROUP        1 Z    SEP  0     **** SEP Z 7
     6 LYP3       17 GROUP        1 Z    LYP  0     **** LYP Z 9
     7 GLP5       18 GROUP        1 Z    GLP  0     **** GLP Z 11
     8 ZIP7       26 GROUP        1 Z    ZIP  0     **** ZIP Z 12
     9 SEC1       27 GROUP        1 Z    SEC  0     **** SEC Z 14
    10 LYC3       32 GROUP        1 Z    LYC  0     **** LYC Z 16
    11 GLC5       34 GROUP        1 Z    GLC  0     **** GLC Z 18
    12 ZIC7       42 GROUP        1 Z    ZIC  0     **** ZIC Z 19
@<TRIPOS>SET

