4bqy_FNT_1_ligand
  -OEChem-08111718373D

 30 31  0     1  0  0  0  0  0999 V2000
  -44.5559  -17.5251    1.4174 H   0  0  0  0  0  0  0  0  0  0  0  0
  -45.6764  -19.5695    1.8449 H   0  0  0  0  0  0  0  0  0  0  0  0
  -42.3488  -17.2077    2.2251 H   0  0  0  0  0  0  0  0  0  0  0  0
  -44.5964  -21.2792    3.0997 H   0  0  0  0  0  0  0  0  0  0  0  0
  -35.1455  -20.1463    4.9116 H   0  0  0  0  0  0  0  0  0  0  0  0
  -36.5668  -20.9485    4.9665 H   0  0  0  0  0  0  0  0  0  0  0  0
  -36.0637  -20.2735    3.5672 H   0  0  0  0  0  0  0  0  0  0  0  0
  -36.8044  -18.7818    5.9188 H   0  0  0  0  0  0  0  0  0  0  0  0
  -38.3944  -18.3007    3.7103 H   0  0  0  0  0  0  0  0  0  0  0  0
  -44.1020  -18.2490    1.9370 C   0  0  0  0  0  0  0  0  0  0  0  0
  -44.7480  -19.4270    2.1880 C   0  0  0  0  0  0  0  0  0  0  0  0
  -42.8240  -18.0690    2.4050 C   0  0  0  0  0  0  0  0  0  0  0  0
  -44.1240  -20.4180    2.9120 C   0  0  0  0  0  0  0  0  0  0  0  0
  -42.1860  -19.0640    3.1220 C   0  0  0  0  0  0  0  0  0  0  0  0
  -42.8390  -20.2120    3.3770 C   0  0  0  0  0  0  0  0  0  0  0  0
  -40.9070  -18.9010    3.6070 C   0  0  0  0  0  0  0  0  0  0  0  0
  -40.2730  -19.8940    4.3620 C   0  0  0  0  0  0  0  0  0  0  0  0
  -42.1930  -21.1720    4.1020 C   0  0  0  0  0  0  0  0  0  0  0  0
  -38.9780  -19.8150    4.9250 C   0  0  0  0  0  0  0  0  0  0  0  0
  -36.0290  -17.7360    4.2870 C   0  0  0  0  0  0  0  0  0  0  0  0
  -36.0820  -20.1730    4.5620 C   0  0  0  0  0  0  0  0  0  0  0  0
  -36.7910  -18.8920    4.9250 C   0  0  2  0  0  0  0  0  0  0  0  0
  -40.9650  -20.9970    4.5890 N   0  0  0  0  0  0  0  0  0  0  0  0
  -38.1100  -18.9330    4.4310 N   0  0  0  0  0  0  0  0  0  0  0  0
  -40.2480  -17.7220    3.3270 O   0  0  0  0  0  0  0  0  0  0  0  0
  -34.8690  -17.5700    4.6760 O   0  5  0  0  0  0  0  0  0  0  0  0
  -38.6060  -20.5300    5.9540 O   0  0  0  0  0  0  0  0  0  0  0  0
  -36.5910  -17.0250    3.4350 O   0  0  0  0  0  0  0  0  0  0  0  0
  -42.9490  -22.6770    4.4560 Cl  0  0  0  0  0  0  0  0  0  0  0  0
  -39.3825  -17.7418    3.7182 H   0  0  0  0  0  0  0  0  0  0  0  0
  1 10  1  0  0  0  0
  2 11  1  0  0  0  0
  3 12  1  0  0  0  0
  4 13  1  0  0  0  0
  5 21  1  0  0  0  0
  6 21  1  0  0  0  0
  7 21  1  0  0  0  0
  8 22  1  0  0  0  0
  9 24  1  0  0  0  0
 10 11  2  0  0  0  0
 10 12  1  0  0  0  0
 11 13  1  0  0  0  0
 12 14  2  0  0  0  0
 13 15  2  0  0  0  0
 14 15  1  0  0  0  0
 14 16  1  0  0  0  0
 15 18  1  0  0  0  0
 16 17  2  0  0  0  0
 16 25  1  0  0  0  0
 17 19  1  0  0  0  0
 17 23  1  0  0  0  0
 18 23  2  0  0  0  0
 18 29  1  0  0  0  0
 19 24  1  0  0  0  0
 19 27  2  0  0  0  0
 20 22  1  0  0  0  0
 20 26  1  0  0  0  0
 20 28  2  0  0  0  0
 21 22  1  0  0  0  0
 22 24  1  0  0  0  0
 25 30  1  0  0  0  0
M  CHG  1  26  -1
M  END
> <scpdb_id>
4bqy_1

$$$$
