#    Name: 34217
#    Modification time : Tue Aug  8 20:56:52 2017

@<TRIPOS>MOLECULE
34217
   58     0     6     0     0
SMALL
NO_CHARGES


@<TRIPOS>ATOM
      1 N          27.8130  -12.8650   -7.4260 N.am      1 SEL1        0.0000 
      2 CA         30.9880  -16.1930   -8.5540 C.3       2 GLL5        0.0000 
      3 CA         27.3750   -3.3250   -3.2040 C.3       2 GLL5        0.0000 
      4 CA         30.2630  -15.7730   -6.3940 C.3       2 GLL5        0.0000 
      5 CA         31.0810  -17.7350   -7.0670 C.3       2 GLL5        0.0000 
      6 CA         29.1210  -14.8470   -6.7100 C.3       2 GLL5        0.0000 
      7 CA         29.1990  -17.1750   -7.9360 C.3       2 GLL5        0.0000 
      8 CA         28.9790  -13.8040   -5.6260 C.3       2 GLL5        0.0000 
      9 CA         27.8190  -10.1100   -3.6630 C.3       2 GLL5        0.0000 
     10 CA         26.6580   -9.4290   -4.3560 C.3       2 GLL5        0.0000 
     11 CA         26.9090   -9.5000   -5.8530 C.3       2 GLL5        0.0000 
     12 N          25.2680  -13.6950   -8.5270 N.am      3 SEP1        0.0000 
     13 CA         31.3830  -12.8290   -9.4060 C.3       4 GLP5        0.0000 
     14 CA         24.3070   -1.3150   -5.7990 C.3       4 GLP5        0.0000 
     15 CA         30.0460  -18.6020   -3.3700 C.3       4 GLP5        0.0000 
     16 CA         32.1910  -15.2110   -3.3140 C.3       4 GLP5        0.0000 
     17 CA         33.2210  -15.8080   -4.0530 C.3       4 GLP5        0.0000 
     18 CA         29.2030  -21.4610   -7.2530 C.3       4 GLP5        0.0000 
     19 CA         31.5860  -12.4330   -7.9750 C.3       4 GLP5        0.0000 
     20 CA         25.7560  -16.0380   -8.7200 C.3       4 GLP5        0.0000 
     21 CA         28.0040  -20.6050   -7.3300 C.3       4 GLP5        0.0000 
     22 CA         30.9680  -11.3150   -7.4730 C.3       4 GLP5        0.0000 
     23 CA         31.6180   -8.6330   -2.2860 C.3       4 GLP5        0.0000 
     24 CA         31.2060  -10.8580   -6.1840 C.3       4 GLP5        0.0000 
     25 CA         23.0740   -7.0900   -3.7310 C.3       4 GLP5        0.0000 
     26 CA         24.4180  -10.6930   -0.6730 C.3       4 GLP5        0.0000 
     27 CA         25.1090   -9.9930   -9.4530 C.3       4 GLP5        0.0000 
     28 CA         32.5460  -13.0630   -7.1990 C.3       4 GLP5        0.0000 
     29 CA         32.5900  -20.1160   -5.9140 C.3       4 GLP5        0.0000 
     30 CA         23.6540  -11.6420   -5.0480 C.3       4 GLP5        0.0000 
     31 CA         34.2330  -15.6370   -8.5960 C.3       4 GLP5        0.0000 
     32 CA         28.7780  -15.3870  -11.4630 C.3       4 GLP5        0.0000 
     33 CA         32.4640  -19.8020   -9.6810 C.3       4 GLP5        0.0000 
     34 N          26.5405  -13.2800   -7.9765 N.am      5 SEC1        0.0000 
     35 CA         31.1855  -14.5110   -8.9800 C.3       6 GLC5        0.0000 
     36 CA         25.8410   -2.3200   -4.5015 C.3       6 GLC5        0.0000 
     37 CA         30.1545  -17.1875   -4.8820 C.3       6 GLC5        0.0000 
     38 CA         31.2270  -15.4920   -4.8540 C.3       6 GLC5        0.0000 
     39 CA         30.5635  -18.1685   -5.2185 C.3       6 GLC5        0.0000 
     40 CA         32.1510  -16.7715   -5.5600 C.3       6 GLC5        0.0000 
     41 CA         30.1420  -19.5980   -7.1600 C.3       6 GLC5        0.0000 
     42 CA         30.3535  -13.6400   -7.3425 C.3       6 GLC5        0.0000 
     43 CA         27.4385  -15.4425   -7.7150 C.3       6 GLC5        0.0000 
     44 CA         27.4775  -16.6065   -8.3280 C.3       6 GLC5        0.0000 
     45 CA         28.6015  -18.8900   -7.6330 C.3       6 GLC5        0.0000 
     46 CA         29.9735  -12.5595   -6.5495 C.3       6 GLC5        0.0000 
     47 CA         30.5850  -14.5075   -4.4700 C.3       6 GLC5        0.0000 
     48 CA         29.7185   -9.3715   -2.9745 C.3       6 GLC5        0.0000 
     49 CA         29.5125  -10.4840   -4.9235 C.3       6 GLC5        0.0000 
     50 CA         24.8660   -8.2595   -4.0435 C.3       6 GLC5        0.0000 
     51 CA         25.5380  -10.0610   -2.5145 C.3       6 GLC5        0.0000 
     52 CA         26.0090   -9.7465   -7.6530 C.3       6 GLC5        0.0000 
     53 CA         31.4330  -14.6593   -7.0815 C.3       6 GLC5        0.0000 
     54 CA         31.9372  -18.5192   -6.7373 C.3       6 GLC5        0.0000 
     55 CA         25.2188  -10.5532   -5.0762 C.3       6 GLC5        0.0000 
     56 CA         32.4694  -16.2440   -8.1341 C.3       6 GLC5        0.0000 
     57 CA         29.5066  -16.0490   -9.6762 C.3       6 GLC5        0.0000 
     58 CA         31.5849  -18.3265   -8.6766 C.3       6 GLC5        0.0000 
@<TRIPOS>BOND
@<TRIPOS>SUBSTRUCTURE
     1 SEL1        1 GROUP        1 Z    SEL  0     ROOT SEL Z 0
     2 GLL5        2 GROUP        1 Z    GLL  0     **** GLL Z 4
     3 SEP1       12 GROUP        1 Z    SEP  0     **** SEP Z 7
     4 GLP5       13 GROUP        1 Z    GLP  0     **** GLP Z 11
     5 SEC1       34 GROUP        1 Z    SEC  0     **** SEC Z 14
     6 GLC5       35 GROUP        1 Z    GLC  0     **** GLC Z 18
@<TRIPOS>SET

