@<TRIPOS>MOLECULE
3sfi_3SF_1_ligand
   42    44     1     0     0
SMALL
NO_CHARGES


@<TRIPOS>ATOM
     1 C           30.3770   -16.7380    -7.5340 C.3          1 3SF217   0.0000
     2 F           30.9880   -16.1930    -8.5540 F            1 3SF217   0.0000
     3 N           27.6800   -11.7420    -5.5940 N.am         1 3SF217   0.0000
     4 O           27.8130   -12.8650    -7.4260 O.2          1 3SF217   0.0000
     5 S           27.3750    -3.3250    -3.2040 S.3          1 3SF217   0.0000
     6 C1          30.2630   -15.7730    -6.3940 C.3          1 3SF217   0.0000
     7 F1          31.0810   -17.7350    -7.0670 F            1 3SF217   0.0000
     8 N1          26.9720    -6.3700    -2.6320 N.2          1 3SF217   0.0000
     9 O1          26.7870    -7.7040    -2.7920 O.2          1 3SF217   0.0000
    10 C2          29.1210   -14.8470    -6.7100 C.3          1 3SF217   0.0000
    11 F2          29.1990   -17.1750    -7.9360 F            1 3SF217   0.0000
    12 N2          26.9490    -6.9290    -4.7970 N.2          1 3SF217   0.0000
    13 C3          28.9790   -13.8040    -5.6260 C.3          1 3SF217   0.0000
    14 N3          27.3060    -4.1520    -5.5870 N.2          1 3SF217   0.0000
    15 C4          28.1340   -12.7520    -6.2760 C.2          1 3SF217   0.0000
    16 C5          28.1250   -11.5100    -4.1950 C.3          1 3SF217   0.0000
    17 C6          27.8190   -10.1100    -3.6630 C.3          1 3SF217   0.0000
    18 C7          26.6580    -9.4290    -4.3560 C.3          1 3SF217   0.0000
    19 C8          26.9090    -9.5000    -5.8530 C.3          1 3SF217   0.0000
    20 C9          26.6780   -10.9240    -6.2720 C.3          1 3SF217   0.0000
    21 C10         26.7850    -8.0180    -4.0090 C.2          1 3SF217   0.0000
    22 C11         27.0540    -5.9320    -3.9120 C.2          1 3SF217   0.0000
    23 C12         27.2310    -4.6070    -4.3150 C.2          1 3SF217   0.0000
    24 C13         27.4850    -2.7770    -5.6310 C.2          1 3SF217   0.0000
    25 C14         27.5520    -2.0900    -4.4220 C.2          1 3SF217   0.0000
    26 H1          31.1112   -15.2517    -6.2999 H            1 3SF217   0.0000
    27 H2          30.0791   -16.2666    -5.5440 H            1 3SF217   0.0000
    28 H3          28.2746   -15.3758    -6.7724 H            1 3SF217   0.0000
    29 H4          29.2958   -14.3934    -7.5839 H            1 3SF217   0.0000
    30 H5          29.8708   -13.4361    -5.3627 H            1 3SF217   0.0000
    31 H6          28.5237   -14.1831    -4.8204 H            1 3SF217   0.0000
    32 H7          29.1140   -11.6520    -4.1531 H            1 3SF217   0.0000
    33 H8          27.6673   -12.1761    -3.6060 H            1 3SF217   0.0000
    34 H9          28.6337    -9.5427    -3.7832 H            1 3SF217   0.0000
    35 H10         27.6047   -10.1835    -2.6890 H            1 3SF217   0.0000
    36 H11         25.7726    -9.8131    -4.0941 H            1 3SF217   0.0000
    37 H12         27.8505    -9.2310    -6.0562 H            1 3SF217   0.0000
    38 H13         26.2774    -8.8935    -6.3359 H            1 3SF217   0.0000
    39 H14         25.7596   -11.2152    -6.0040 H            1 3SF217   0.0000
    40 H15         26.7791   -11.0101    -7.2631 H            1 3SF217   0.0000
    41 H16         27.5634    -2.2946    -6.5035 H            1 3SF217   0.0000
    42 H17         27.6744    -1.1073    -4.2831 H            1 3SF217   0.0000
@<TRIPOS>BOND
     1    1    2       1
     2    1    6       1
     3    1    7       1
     4    1   11       1
     5    3   15      am
     6    3   16       1
     7    3   20       1
     8    4   15       2
     9    5   23       1
    10    5   25       1
    11    6   10       1
    12    8    9       1
    13    8   22       2
    14    9   21       1
    15   10   13       1
    16   12   21       2
    17   12   22       1
    18   13   15       1
    19   14   23       2
    20   14   24       1
    21   16   17       1
    22   17   18       1
    23   18   19       1
    24   18   21       1
    25   19   20       1
    26   22   23       1
    27   24   25       2
    28    6   26       1
    29    6   27       1
    30   10   28       1
    31   10   29       1
    32   13   30       1
    33   13   31       1
    34   16   32       1
    35   16   33       1
    36   17   34       1
    37   17   35       1
    38   18   36       1
    39   19   37       1
    40   19   38       1
    41   20   39       1
    42   20   40       1
    43   24   41       1
    44   25   42       1
@<TRIPOS>SUBSTRUCTURE
     1 3SF217      1 GROUP             4 A     3SF     0 **** 3SF A 217
