@<TRIPOS>MOLECULE
1r5k_GW5_1_ligand
   48    50     1     0     0
SMALL
NO_CHARGES


@<TRIPOS>ATOM
     1 C21        -11.7040    48.0230   329.6940 C.ar         1 GW5600   0.0000
     2 C22        -11.7420    46.9430   328.8130 C.ar         1 GW5600   0.0000
     3 C23        -11.4390    45.6560   329.2890 C.ar         1 GW5600   0.0000
     4 C24        -11.0920    45.4210   330.6240 C.ar         1 GW5600   0.0000
     5 C25        -11.0510    46.5040   331.4950 C.ar         1 GW5600   0.0000
     6 C20        -11.3430    47.8050   331.0310 C.ar         1 GW5600   0.0000
     7 C3         -11.3030    48.8900   331.9190 C.2          1 GW5600   0.0000
     8 C2         -12.4460    49.8730   331.9730 C.3          1 GW5600   0.0000
     9 C1         -13.7290    49.0730   332.1280 C.3          1 GW5600   0.0000
    10 C4         -10.2190    49.0280   332.7860 C.2          1 GW5600   0.0000
    11 C5         -10.2640    50.1060   333.6690 C.ar         1 GW5600   0.0000
    12 C6          -9.2020    51.0010   333.7760 C.ar         1 GW5600   0.0000
    13 C7          -9.2490    52.0630   334.6770 C.ar         1 GW5600   0.0000
    14 C8         -10.3600    52.2360   335.4860 C.ar         1 GW5600   0.0000
    15 C9         -11.4240    51.3470   335.3950 C.ar         1 GW5600   0.0000
    16 C10        -11.3750    50.2900   334.4860 C.ar         1 GW5600   0.0000
    17 C11         -8.9400    48.5710   332.4690 C.ar         1 GW5600   0.0000
    18 C19         -8.0900    48.1830   333.4990 C.ar         1 GW5600   0.0000
    19 C18         -6.8010    47.7330   333.2360 C.ar         1 GW5600   0.0000
    20 C12         -8.4910    48.5350   331.1560 C.ar         1 GW5600   0.0000
    21 C13         -7.2000    48.0900   330.8860 C.ar         1 GW5600   0.0000
    22 C14         -6.3510    47.6940   331.9170 C.ar         1 GW5600   0.0000
    23 C15         -5.0660    47.2610   331.6170 C.2          1 GW5600   0.0000
    24 C16         -4.1820    46.8710   332.6220 C.2          1 GW5600   0.0000
    25 C17         -2.8900    46.4520   332.2780 C.2          1 GW5600   0.0000
    26 O2          -2.0410    46.1010   333.1070 O.co2        1 GW5600   0.0000
    27 O1          -2.5780    46.4160   331.0930 O.co2        1 GW5600  -1.0000
    28 H1         -11.9318    48.9432   329.3756 H            1 GW5600   0.0000
    29 H2         -11.9824    47.0828   327.8524 H            1 GW5600   0.0000
    30 H3         -11.4724    44.8842   328.6540 H            1 GW5600   0.0000
    31 H4         -10.8789    44.4977   330.9435 H            1 GW5600   0.0000
    32 H5         -10.8133    46.3606   332.4557 H            1 GW5600   0.0000
    33 H6         -12.4768    50.4076   331.1285 H            1 GW5600   0.0000
    34 H7         -12.3308    50.4882   332.7529 H            1 GW5600   0.0000
    35 H8         -14.5088    49.6978   332.1671 H            1 GW5600   0.0000
    36 H9         -13.8342    48.4571   331.3472 H            1 GW5600   0.0000
    37 H10        -13.6882    48.5377   332.9717 H            1 GW5600   0.0000
    38 H11         -8.3948    50.8797   333.1983 H            1 GW5600   0.0000
    39 H12         -8.4808    52.7001   334.7395 H            1 GW5600   0.0000
    40 H13        -10.3962    52.9977   336.1330 H            1 GW5600   0.0000
    41 H14        -12.2253    51.4650   335.9815 H            1 GW5600   0.0000
    42 H15        -12.1469    49.6576   334.4209 H            1 GW5600   0.0000
    43 H16         -8.4113    48.2284   334.4449 H            1 GW5600   0.0000
    44 H17         -6.2043    47.4410   333.9834 H            1 GW5600   0.0000
    45 H18         -9.0901    48.8264   330.4102 H            1 GW5600   0.0000
    46 H19         -6.8779    48.0541   329.9400 H            1 GW5600   0.0000
    47 H20         -4.7694    47.2284   330.6626 H            1 GW5600   0.0000
    48 H21         -4.4676    46.8901   333.5802 H            1 GW5600   0.0000
@<TRIPOS>BOND
     1    1    2      ar
     2    1    6      ar
     3    2    3      ar
     4    3    4      ar
     5    4    5      ar
     6    5    6      ar
     7    6    7       1
     8    7    8       1
     9    7   10       2
    10    8    9       1
    11   10   11       1
    12   10   17       1
    13   11   12      ar
    14   11   16      ar
    15   12   13      ar
    16   13   14      ar
    17   14   15      ar
    18   15   16      ar
    19   17   18      ar
    20   17   20      ar
    21   18   19      ar
    22   19   22      ar
    23   20   21      ar
    24   21   22      ar
    25   22   23       1
    26   23   24       2
    27   24   25       1
    28   25   26      ar
    29   25   27      ar
    30    1   28       1
    31    2   29       1
    32    3   30       1
    33    4   31       1
    34    5   32       1
    35    8   33       1
    36    8   34       1
    37    9   35       1
    38    9   36       1
    39    9   37       1
    40   12   38       1
    41   13   39       1
    42   14   40       1
    43   15   41       1
    44   16   42       1
    45   18   43       1
    46   19   44       1
    47   20   45       1
    48   21   46       1
    49   23   47       1
    50   24   48       1
@<TRIPOS>SUBSTRUCTURE
     1 GW5600      1 GROUP             4 A     GW5     0 **** GW5 A 600
