3i59_N6R_1_ligand
  -OEChem-08111718373D

 52 56  0     1  0  0  0  0  0999 V2000
   -6.8504   27.0304  -22.0160 H   0  0  0  0  0  0  0  0  0  0  0  0
   -7.0172   24.7228  -20.9211 H   0  0  0  0  0  0  0  0  0  0  0  0
   -5.0448   27.5012  -23.8645 H   0  0  0  0  0  0  0  0  0  0  0  0
   -5.3917   22.8460  -21.6196 H   0  0  0  0  0  0  0  0  0  0  0  0
   -3.4165   25.6234  -24.5581 H   0  0  0  0  0  0  0  0  0  0  0  0
   -6.0023   17.6245  -22.8908 H   0  0  0  0  0  0  0  0  0  0  0  0
    0.9256   17.5853  -22.5753 H   0  0  0  0  0  0  0  0  0  0  0  0
    2.2382   14.5643  -19.6699 H   0  0  0  0  0  0  0  0  0  0  0  0
    2.9193   15.9837  -20.1035 H   0  0  0  0  0  0  0  0  0  0  0  0
    1.5007   16.1839  -21.9782 H   0  0  0  0  0  0  0  0  0  0  0  0
    0.8091   13.4198  -21.4158 H   0  0  0  0  0  0  0  0  0  0  0  0
   -0.6055   14.7809  -23.4796 H   0  0  0  0  0  0  0  0  0  0  0  0
   -1.8580   15.3244  -21.0466 H   0  0  0  0  0  0  0  0  0  0  0  0
   -3.8025   22.4800  -26.8514 H   0  0  0  0  0  0  0  0  0  0  0  0
   -3.9243   23.8428  -25.9599 H   0  0  0  0  0  0  0  0  0  0  0  0
   -2.4801   23.0973  -26.1186 H   0  0  0  0  0  0  0  0  0  0  0  0
   -3.0972   22.2998  -22.7950 H   0  0  0  0  0  0  0  0  0  0  0  0
   -2.3342   23.3231  -23.8136 H   0  0  0  0  0  0  0  0  0  0  0  0
   -4.7442   21.9338  -24.6979 H   0  0  0  0  0  0  0  0  0  0  0  0
   -2.2102   20.8070  -25.4961 H   0  0  0  0  0  0  0  0  0  0  0  0
   -1.3404   12.7853  -23.1161 H   0  0  0  0  0  0  0  0  0  0  0  0
   -6.2210   26.3040  -22.2920 C   0  0  0  0  0  0  0  0  0  0  0  0
   -6.3230   24.8950  -21.6200 C   0  0  0  0  0  0  0  0  0  0  0  0
   -5.1020   26.6000  -23.4350 C   0  0  0  0  0  0  0  0  0  0  0  0
   -5.3320   23.7490  -22.0450 C   0  0  0  0  0  0  0  0  0  0  0  0
   -4.1100   25.4530  -23.8580 C   0  0  0  0  0  0  0  0  0  0  0  0
   -5.0520   17.9040  -23.0280 C   0  0  0  0  0  0  0  0  0  0  0  0
   -0.0520   17.7410  -22.7170 C   0  0  0  0  0  0  0  0  0  0  0  0
   -4.2110   24.0480  -23.1820 C   0  0  0  0  0  0  0  0  0  0  0  0
   -2.1700   18.7730  -23.4590 C   0  0  0  0  0  0  0  0  0  0  0  0
   -2.4940   17.4780  -22.6790 C   0  0  0  0  0  0  0  0  0  0  0  0
   -3.3340   19.6630  -24.0550 C   0  0  0  0  0  0  0  0  0  0  0  0
    2.5310   15.1270  -20.4430 C   0  0  2  0  0  0  0  0  0  0  0  0
    1.2870   15.4530  -21.3300 C   0  0  1  0  0  0  0  0  0  0  0  0
    0.8640   14.1600  -22.0860 C   0  0  1  0  0  0  0  0  0  0  0  0
   -0.5460   14.4890  -22.5250 C   0  0  2  0  0  0  0  0  0  0  0  0
   -1.0120   15.5880  -21.5100 C   0  0  2  0  0  0  0  0  0  0  0  0
   -3.4670   22.9570  -26.0390 C   0  0  0  0  0  0  0  0  0  0  0  0
   -3.2160   22.9180  -23.5720 C   0  0  2  0  0  0  0  0  0  0  0  0
   -3.7650   22.1140  -24.7910 C   0  0  2  0  0  0  0  0  0  0  0  0
   -3.9100   17.0570  -22.4620 N   0  0  0  0  0  0  0  0  0  0  0  0
   -4.7130   19.2450  -23.8440 N   0  0  0  0  0  0  0  0  0  0  0  0
   -0.6910   18.9440  -23.4950 N   0  0  0  0  0  0  0  0  0  0  0  0
   -1.1630   16.8670  -22.2240 N   0  0  0  0  0  0  0  0  0  0  0  0
   -2.9900   20.8560  -24.8720 N   0  0  0  0  0  0  0  0  0  0  0  0
    3.7350   15.1000  -23.7130 O   0  0  0  0  0  0  0  0  0  0  0  0
    3.5500   14.4120  -21.1830 O   0  0  0  0  0  0  0  0  0  0  0  0
    0.0790   15.7830  -20.5620 O   0  0  0  0  0  0  0  0  0  0  0  0
    1.7460   13.7320  -23.1400 O   0  0  0  0  0  0  0  0  0  0  0  0
   -1.2340   13.3010  -22.2660 O   0  0  0  0  0  0  0  0  0  0  0  0
    3.8700   12.5450  -22.9790 O   0  5  0  0  0  0  0  0  0  0  0  0
    3.2340   13.8380  -22.7830 P   0  0  1  0  0  0  0  0  0  0  0  0
  1 22  1  0  0  0  0
  2 23  1  0  0  0  0
  3 24  1  0  0  0  0
  4 25  1  0  0  0  0
  5 26  1  0  0  0  0
  6 27  1  0  0  0  0
  7 28  1  0  0  0  0
  8 33  1  0  0  0  0
  9 33  1  0  0  0  0
 10 34  1  0  0  0  0
 11 35  1  0  0  0  0
 12 36  1  0  0  0  0
 13 37  1  0  0  0  0
 14 38  1  0  0  0  0
 15 38  1  0  0  0  0
 16 38  1  0  0  0  0
 17 39  1  0  0  0  0
 18 39  1  0  0  0  0
 19 40  1  0  0  0  0
 20 45  1  0  0  0  0
 21 50  1  0  0  0  0
 22 23  1  0  0  0  0
 22 24  2  0  0  0  0
 23 25  2  0  0  0  0
 24 26  1  0  0  0  0
 25 29  1  0  0  0  0
 26 29  2  0  0  0  0
 27 41  2  0  0  0  0
 27 42  1  0  0  0  0
 28 43  2  0  0  0  0
 28 44  1  0  0  0  0
 29 39  1  0  0  0  0
 30 31  2  0  0  0  0
 30 32  1  0  0  0  0
 30 43  1  0  0  0  0
 31 41  1  0  0  0  0
 31 44  1  0  0  0  0
 32 42  2  0  0  0  0
 32 45  1  0  0  0  0
 33 34  1  0  0  0  0
 33 47  1  0  0  0  0
 34 35  1  0  0  0  0
 34 48  1  0  0  0  0
 35 36  1  0  0  0  0
 35 49  1  0  0  0  0
 36 37  1  0  0  0  0
 36 50  1  0  0  0  0
 37 44  1  0  0  0  0
 37 48  1  0  0  0  0
 38 40  1  0  0  0  0
 39 40  1  0  0  0  0
 40 45  1  0  0  0  0
 46 52  2  0  0  0  0
 47 52  1  0  0  0  0
 49 52  1  0  0  0  0
 51 52  1  0  0  0  0
M  CHG  1  51  -1
M  END
> <scpdb_id>
3i59_1

$$$$
