@<TRIPOS>MOLECULE
3l3l_L3L_1_ligand
   37    39     1     0     0
SMALL
NO_CHARGES


@<TRIPOS>ATOM
     1 C1         -28.7080    65.1120    24.2910 C.ar         1 L3L351   0.0000
     2 C2         -27.8410    65.9550    23.6210 C.ar         1 L3L351   0.0000
     3 C3         -28.2640    64.3350    25.3420 C.ar         1 L3L351   0.0000
     4 C4         -26.0720    65.2250    25.0190 C.ar         1 L3L351   0.0000
     5 C5         -26.5120    66.0220    23.9800 C.ar         1 L3L351   0.0000
     6 C6         -26.9340    64.4000    25.6880 C.ar         1 L3L351   0.0000
     7 C7         -24.7410    65.0730    25.6170 C.2          1 L3L351   0.0000
     8 C8         -25.6700    66.9500    23.2160 C.2          1 L3L351   0.0000
     9 C9         -26.2550    63.6590    26.7810 C.3          1 L3L351   0.0000
    10 C10        -23.3550    62.4670    27.2140 C.3          1 L3L351   0.0000
    11 C11        -24.2770    63.8380    29.0150 C.3          1 L3L351   0.0000
    12 C12        -22.1830    62.1540    28.1100 C.3          1 L3L351   0.0000
    13 C13        -23.0850    63.4460    29.8530 C.3          1 L3L351   0.0000
    14 C14        -23.8640    63.8410    27.5660 C.3          1 L3L351   0.0000
    15 N15        -22.6640    62.1060    29.4770 N.4          1 L3L351   1.0000
    16 N16        -24.9400    64.2500    26.7020 N.am         1 L3L351   0.0000
    17 N17        -24.3290    66.8950    23.4850 N.am         1 L3L351   0.0000
    18 O18        -23.6920    65.5380    25.1910 O.2          1 L3L351   0.0000
    19 O19        -26.2050    67.7030    22.4160 O.2          1 L3L351   0.0000
    20 H1         -29.6669    65.0646    24.0113 H            1 L3L351   0.0000
    21 H2         -28.1809    66.5208    22.8698 H            1 L3L351   0.0000
    22 H3         -28.8940    63.7391    25.8400 H            1 L3L351   0.0000
    23 H4         -26.2313    62.6751    26.6039 H            1 L3L351   0.0000
    24 H5         -26.6855    63.8279    27.6676 H            1 L3L351   0.0000
    25 H6         -24.0788    61.7916    27.3552 H            1 L3L351   0.0000
    26 H7         -23.0640    62.4487    26.2574 H            1 L3L351   0.0000
    27 H8         -24.5888    64.7508    29.2786 H            1 L3L351   0.0000
    28 H9         -25.0173    63.1801    29.1532 H            1 L3L351   0.0000
    29 H10        -21.4872    62.8666    28.0199 H            1 L3L351   0.0000
    30 H11        -21.7894    61.2700    27.8575 H            1 L3L351   0.0000
    31 H12        -23.3362    63.4596    30.8208 H            1 L3L351   0.0000
    32 H13        -22.3366    64.0899    29.6938 H            1 L3L351   0.0000
    33 H14        -23.1115    64.4905    27.4569 H            1 L3L351   0.0000
    34 H15        -21.9314    61.7977    30.0838 H            1 L3L351   0.0000
    35 H16        -23.6967    67.4996    23.0007 H            1 L3L351   0.0000
    36 H17        -23.9816    66.2502    24.1658 H            1 L3L351   0.0000
    37 H18        -23.4381    61.4763    29.5424 H            1 L3L351   0.0000
@<TRIPOS>BOND
     1    1    2      ar
     2    1    3      ar
     3    2    5      ar
     4    3    6      ar
     5    4    5      ar
     6    4    6      ar
     7    4    7       1
     8    5    8       1
     9    6    9       1
    10    7   16      am
    11    7   18       2
    12    8   17      am
    13    8   19       2
    14    9   16       1
    15   10   12       1
    16   10   14       1
    17   11   13       1
    18   11   14       1
    19   12   15       1
    20   13   15       1
    21   14   16       1
    22    1   20       1
    23    2   21       1
    24    3   22       1
    25    9   23       1
    26    9   24       1
    27   10   25       1
    28   10   26       1
    29   11   27       1
    30   11   28       1
    31   12   29       1
    32   12   30       1
    33   13   31       1
    34   13   32       1
    35   14   33       1
    36   15   34       1
    37   17   35       1
    38   17   36       1
    39   15   37       1
@<TRIPOS>SUBSTRUCTURE
     1 L3L351      1 GROUP             4 A     L3L     0 **** L3L A 351
