3l3l_L3L_1_ligand
  -OEChem-08111718373D

 37 39  0     1  0  0  0  0  0999 V2000
  -29.6669   65.0646   24.0113 H   0  0  0  0  0  0  0  0  0  0  0  0
  -28.1809   66.5208   22.8698 H   0  0  0  0  0  0  0  0  0  0  0  0
  -28.8940   63.7391   25.8400 H   0  0  0  0  0  0  0  0  0  0  0  0
  -26.2313   62.6751   26.6039 H   0  0  0  0  0  0  0  0  0  0  0  0
  -26.6855   63.8279   27.6676 H   0  0  0  0  0  0  0  0  0  0  0  0
  -24.0788   61.7916   27.3552 H   0  0  0  0  0  0  0  0  0  0  0  0
  -23.0640   62.4487   26.2574 H   0  0  0  0  0  0  0  0  0  0  0  0
  -24.5888   64.7508   29.2786 H   0  0  0  0  0  0  0  0  0  0  0  0
  -25.0173   63.1801   29.1532 H   0  0  0  0  0  0  0  0  0  0  0  0
  -21.4872   62.8666   28.0199 H   0  0  0  0  0  0  0  0  0  0  0  0
  -21.7894   61.2700   27.8575 H   0  0  0  0  0  0  0  0  0  0  0  0
  -23.3362   63.4596   30.8208 H   0  0  0  0  0  0  0  0  0  0  0  0
  -22.3366   64.0899   29.6938 H   0  0  0  0  0  0  0  0  0  0  0  0
  -23.1115   64.4905   27.4569 H   0  0  0  0  0  0  0  0  0  0  0  0
  -23.6967   67.4996   23.0007 H   0  0  0  0  0  0  0  0  0  0  0  0
  -23.9816   66.2502   24.1658 H   0  0  0  0  0  0  0  0  0  0  0  0
  -23.4381   61.4763   29.5424 H   0  0  0  0  0  0  0  0  0  0  0  0
  -28.7080   65.1120   24.2910 C   0  0  0  0  0  0  0  0  0  0  0  0
  -27.8410   65.9550   23.6210 C   0  0  0  0  0  0  0  0  0  0  0  0
  -28.2640   64.3350   25.3420 C   0  0  0  0  0  0  0  0  0  0  0  0
  -26.0720   65.2250   25.0190 C   0  0  0  0  0  0  0  0  0  0  0  0
  -26.5120   66.0220   23.9800 C   0  0  0  0  0  0  0  0  0  0  0  0
  -26.9340   64.4000   25.6880 C   0  0  0  0  0  0  0  0  0  0  0  0
  -24.7410   65.0730   25.6170 C   0  0  0  0  0  0  0  0  0  0  0  0
  -25.6700   66.9500   23.2160 C   0  0  0  0  0  0  0  0  0  0  0  0
  -26.2550   63.6590   26.7810 C   0  0  2  0  0  0  0  0  0  0  0  0
  -23.3550   62.4670   27.2140 C   0  0  2  0  0  0  0  0  0  0  0  0
  -24.2770   63.8380   29.0150 C   0  0  2  0  0  0  0  0  0  0  0  0
  -22.1830   62.1540   28.1100 C   0  0  2  0  0  0  0  0  0  0  0  0
  -23.0850   63.4460   29.8530 C   0  0  2  0  0  0  0  0  0  0  0  0
  -23.8640   63.8410   27.5660 C   0  0  2  0  0  0  0  0  0  0  0  0
  -24.9400   64.2500   26.7020 N   0  0  0  0  0  0  0  0  0  0  0  0
  -24.3290   66.8950   23.4850 N   0  0  0  0  0  0  0  0  0  0  0  0
  -22.6640   62.1060   29.4770 N   0  3  2  0  0  0  0  0  0  0  0  0
  -23.6920   65.5380   25.1910 O   0  0  0  0  0  0  0  0  0  0  0  0
  -26.2050   67.7030   22.4160 O   0  0  0  0  0  0  0  0  0  0  0  0
  -21.9314   61.7977   30.0838 H   0  0  0  0  0  0  0  0  0  0  0  0
  1 18  1  0  0  0  0
  2 19  1  0  0  0  0
  3 20  1  0  0  0  0
  4 26  1  0  0  0  0
  5 26  1  0  0  0  0
  6 27  1  0  0  0  0
  7 27  1  0  0  0  0
  8 28  1  0  0  0  0
  9 28  1  0  0  0  0
 10 29  1  0  0  0  0
 11 29  1  0  0  0  0
 12 30  1  0  0  0  0
 13 30  1  0  0  0  0
 14 31  1  0  0  0  0
 15 33  1  0  0  0  0
 16 33  1  0  0  0  0
 17 34  1  0  0  0  0
 18 19  2  0  0  0  0
 18 20  1  0  0  0  0
 19 22  1  0  0  0  0
 20 23  2  0  0  0  0
 21 22  2  0  0  0  0
 21 23  1  0  0  0  0
 21 24  1  0  0  0  0
 22 25  1  0  0  0  0
 23 26  1  0  0  0  0
 24 32  1  0  0  0  0
 24 35  2  0  0  0  0
 25 33  1  0  0  0  0
 25 36  2  0  0  0  0
 26 32  1  0  0  0  0
 27 29  1  0  0  0  0
 27 31  1  0  0  0  0
 28 30  1  0  0  0  0
 28 31  1  0  0  0  0
 29 34  1  0  0  0  0
 30 34  1  0  0  0  0
 31 32  1  0  0  0  0
 34 37  1  0  0  0  0
M  CHG  1  34   1
M  END
> <scpdb_id>
3l3l_1

$$$$
