@<TRIPOS>MOLECULE
3gbk_2PQ_1_ligand
   84    88     1     0     0
SMALL
NO_CHARGES


@<TRIPOS>ATOM
     1 CAB         32.9110    -5.3960    47.1060 C.ar         1 2PQ1385   0.0000
     2 CAC         32.7770    -5.9450    48.3720 C.ar         1 2PQ1385   0.0000
     3 CAD         32.9560    -7.3170    48.5270 C.ar         1 2PQ1385   0.0000
     4 CAE         33.2710    -8.1340    47.4370 C.ar         1 2PQ1385   0.0000
     5 CAF         33.3990    -7.5920    46.1650 C.ar         1 2PQ1385   0.0000
     6 CAA         33.2180    -6.2250    46.0130 C.ar         1 2PQ1385   0.0000
     7 CAJ         33.3520    -5.6580    44.7550 C.ar         1 2PQ1385   0.0000
     8 CAK         34.5440    -5.8380    44.0460 C.ar         1 2PQ1385   0.0000
     9 CAL         34.7020    -5.2780    42.7880 C.ar         1 2PQ1385   0.0000
    10 CAI         32.2850    -4.9050    44.2380 C.ar         1 2PQ1385   0.0000
    11 CAH         32.4410    -4.3300    42.9850 C.ar         1 2PQ1385   0.0000
    12 CAG         33.6410    -4.5160    42.2670 C.ar         1 2PQ1385   0.0000
    13 CBP         33.7310    -3.8710    40.8940 C.2          1 2PQ1385   0.0000
    14 OBQ         32.6850    -3.7050    40.2850 O.2          1 2PQ1385   0.0000
    15 CAP         35.0750    -3.4840    40.2820 C.ar         1 2PQ1385   0.0000
    16 CAO         35.2060    -3.4710    38.8870 C.ar         1 2PQ1385   0.0000
    17 CAN         36.4380    -3.1600    38.2940 C.ar         1 2PQ1385   0.0000
    18 CBM         36.5310    -3.1360    36.7610 C.3          1 2PQ1385   0.0000
    19 CBN         35.5060    -3.9630    36.0070 C.3          1 2PQ1385   0.0000
    20 CBO         35.5370    -3.5540    34.5440 C.3          1 2PQ1385   0.0000
    21 CAQ         36.1900    -3.1820    41.0890 C.ar         1 2PQ1385   0.0000
    22 CAR         37.4320    -2.8570    40.5130 C.ar         1 2PQ1385   0.0000
    23 CAM         37.5560    -2.8550    39.1150 C.ar         1 2PQ1385   0.0000
    24 OBL         38.7350    -2.5330    38.4810 O.3          1 2PQ1385   0.0000
    25 CBK         40.0690    -2.5700    39.0790 C.3          1 2PQ1385   0.0000
    26 CBJ         41.0530    -3.1080    38.0380 C.3          1 2PQ1385   0.0000
    27 CBI         40.2890    -3.6540    36.8220 C.3          1 2PQ1385   0.0000
    28 NAX         40.3710    -5.1630    36.6130 N.pl3        1 2PQ1385   0.0000
    29 CAY         41.3180    -5.9980    37.4080 C.3          1 2PQ1385   0.0000
    30 CAZ         40.6600    -7.3280    37.8340 C.3          1 2PQ1385   0.0000
    31 CBA         40.1720    -8.1230    36.6340 C.3          1 2PQ1385   0.0000
    32 CAV         39.4570    -7.2160    35.6070 C.ar         1 2PQ1385   0.0000
    33 CAW         39.5770    -5.8030    35.6160 C.ar         1 2PQ1385   0.0000
    34 CBH         38.8970    -5.0230    34.6640 C.ar         1 2PQ1385   0.0000
    35 CAT         38.1230    -5.6190    33.6840 C.ar         1 2PQ1385   0.0000
    36 CAS         38.0250    -7.0100    33.6440 C.ar         1 2PQ1385   0.0000
    37 CAU         38.6740    -7.8170    34.6110 C.ar         1 2PQ1385   0.0000
    38 OBE         38.6440    -9.2090    34.6390 O.3          1 2PQ1385   0.0000
    39 CBD         37.6670   -10.0970    34.0900 C.3          1 2PQ1385   0.0000
    40 CBF         38.0450   -11.5480    34.4480 C.3          1 2PQ1385   0.0000
    41 CBG         36.3070    -9.7640    34.6900 C.3          1 2PQ1385   0.0000
    42 CBB         37.6120    -9.9710    32.5500 C.2          1 2PQ1385   0.0000
    43 OBR         38.5740   -10.4020    31.8750 O.co2        1 2PQ1385   0.0000
    44 OBC         36.5950    -9.4200    32.0750 O.co2        1 2PQ1385  -1.0000
    45 HAB         32.7896    -4.4127    46.9707 H            1 2PQ1385   0.0000
    46 HAC         32.5563    -5.3673    49.1578 H            1 2PQ1385   0.0000
    47 HAD         32.8575    -7.7255    49.4344 H            1 2PQ1385   0.0000
    48 HAE         33.4050    -9.1154    47.5744 H            1 2PQ1385   0.0000
    49 HAF         33.6159    -8.1716    45.3795 H            1 2PQ1385   0.0000
    50 HAK         35.2862    -6.3736    44.4488 H            1 2PQ1385   0.0000
    51 HAL         35.5448    -5.4117    42.2667 H            1 2PQ1385   0.0000
    52 HAI         31.4386    -4.7869    44.7573 H            1 2PQ1385   0.0000
    53 HAH         31.7023    -3.7834    42.5906 H            1 2PQ1385   0.0000
    54 HAO         34.4167    -3.6846    38.3113 H            1 2PQ1385   0.0000
    55 HBM1        37.4382    -3.4710    36.5065 H            1 2PQ1385   0.0000
    56 HBM2        36.4315    -2.1859    36.4655 H            1 2PQ1385   0.0000
    57 HBN1        34.5950    -3.7967    36.3844 H            1 2PQ1385   0.0000
    58 HBN2        35.7291    -4.9342    36.0904 H            1 2PQ1385   0.0000
    59 HBO1        34.8657    -4.0913    34.0334 H            1 2PQ1385   0.0000
    60 HBO2        35.3158    -2.5820    34.4649 H            1 2PQ1385   0.0000
    61 HBO3        36.4499    -3.7196    34.1709 H            1 2PQ1385   0.0000
    62 HAQ         36.0973    -3.1989    42.0846 H            1 2PQ1385   0.0000
    63 HAR         38.2155    -2.6306    41.0917 H            1 2PQ1385   0.0000
    64 HBK1        40.0634    -3.1695    39.8793 H            1 2PQ1385   0.0000
    65 HBK2        40.3406    -1.6480    39.3551 H            1 2PQ1385   0.0000
    66 HBJ1        41.5959    -3.8427    38.4447 H            1 2PQ1385   0.0000
    67 HBJ2        41.6594    -2.3694    37.7433 H            1 2PQ1385   0.0000
    68 HBI1        40.6553    -3.2101    36.0042 H            1 2PQ1385   0.0000
    69 HBI2        39.3251    -3.4106    36.9300 H            1 2PQ1385   0.0000
    70 HAY1        41.5924    -5.4923    38.2259 H            1 2PQ1385   0.0000
    71 HAY2        42.1253    -6.1960    36.8520 H            1 2PQ1385   0.0000
    72 HAZ1        39.8814    -7.1285    38.4290 H            1 2PQ1385   0.0000
    73 HAZ2        41.3304    -7.8756    38.3347 H            1 2PQ1385   0.0000
    74 HBA1        39.5331    -8.8255    36.9476 H            1 2PQ1385   0.0000
    75 HBA2        40.9561    -8.5589    36.1922 H            1 2PQ1385   0.0000
    76 HBH         38.9736    -4.0264    34.6955 H            1 2PQ1385   0.0000
    77 HAT         37.6391    -5.0587    33.0117 H            1 2PQ1385   0.0000
    78 HAS         37.4879    -7.4446    32.9211 H            1 2PQ1385   0.0000
    79 HBF1        37.3646   -12.1736    34.0663 H            1 2PQ1385   0.0000
    80 HBF2        38.9448   -11.7616    34.0675 H            1 2PQ1385   0.0000
    81 HBF3        38.0708   -11.6501    35.4424 H            1 2PQ1385   0.0000
    82 HBG1        35.6160   -10.3802    34.3120 H            1 2PQ1385   0.0000
    83 HBG2        36.3447    -9.8745    35.6832 H            1 2PQ1385   0.0000
    84 HBG3        36.0675    -8.8187    34.4687 H            1 2PQ1385   0.0000
@<TRIPOS>BOND
     1    1    2      ar
     2    1    6      ar
     3    2    3      ar
     4    3    4      ar
     5    4    5      ar
     6    5    6      ar
     7    6    7       1
     8    7    8      ar
     9    7   10      ar
    10    8    9      ar
    11    9   12      ar
    12   10   11      ar
    13   11   12      ar
    14   12   13       1
    15   13   14       2
    16   13   15       1
    17   15   16      ar
    18   15   21      ar
    19   16   17      ar
    20   17   18       1
    21   17   23      ar
    22   18   19       1
    23   19   20       1
    24   21   22      ar
    25   22   23      ar
    26   23   24       1
    27   24   25       1
    28   25   26       1
    29   26   27       1
    30   27   28       1
    31   28   29       1
    32   28   33       1
    33   29   30       1
    34   30   31       1
    35   31   32       1
    36   32   33      ar
    37   32   37      ar
    38   33   34      ar
    39   34   35      ar
    40   35   36      ar
    41   36   37      ar
    42   37   38       1
    43   38   39       1
    44   39   40       1
    45   39   41       1
    46   39   42       1
    47   42   43      ar
    48   42   44      ar
    49    1   45       1
    50    2   46       1
    51    3   47       1
    52    4   48       1
    53    5   49       1
    54    8   50       1
    55    9   51       1
    56   10   52       1
    57   11   53       1
    58   16   54       1
    59   18   55       1
    60   18   56       1
    61   19   57       1
    62   19   58       1
    63   20   59       1
    64   20   60       1
    65   20   61       1
    66   21   62       1
    67   22   63       1
    68   25   64       1
    69   25   65       1
    70   26   66       1
    71   26   67       1
    72   27   68       1
    73   27   69       1
    74   29   70       1
    75   29   71       1
    76   30   72       1
    77   30   73       1
    78   31   74       1
    79   31   75       1
    80   34   76       1
    81   35   77       1
    82   36   78       1
    83   40   79       1
    84   40   80       1
    85   40   81       1
    86   41   82       1
    87   41   83       1
    88   41   84       1
@<TRIPOS>SUBSTRUCTURE
     1 2PQ1385     1 GROUP             4 A     2PQ     0 **** 2PQ A1385
