#    Name: 3556
#    Modification time : Tue Aug  8 19:19:11 2017

@<TRIPOS>MOLECULE
3556
   40     0     9     0     0
SMALL
NO_CHARGES


@<TRIPOS>ATOM
      1 N          39.6490   40.0520   50.9250 N.am      1 SEL1        0.0000 
      2 N          40.3680   40.8330   53.2400 N.am      1 SEL1        0.0000 
      3 N          37.8260   45.0350   51.3370 N.am      1 SEL1        0.0000 
      4 N          37.1690   43.2530   46.0680 N.am      1 SEL1        0.0000 
      5 O          37.8260   45.0350   51.3370 O.2       2 ALL2        0.0000 
      6 O          35.0550   44.3780   44.1550 O.2       2 ALL2        0.0000 
      7 CA         41.5290   43.0240   50.4080 C.3       3 GLL5        0.0000 
      8 CA         40.2330   43.8990   50.2480 C.3       3 GLL5        0.0000 
      9 CA         38.5830   44.8720   49.0800 C.3       3 GLL5        0.0000 
     10 CA         39.0030   43.1160   50.5650 C.3       3 GLL5        0.0000 
     11 N          41.7480   38.7470   49.1790 N.am      4 SEP1        0.0000 
     12 N          39.2880   39.6950   47.8490 N.am      4 SEP1        0.0000 
     13 N          41.6230   41.2560   55.6160 N.am      4 SEP1        0.0000 
     14 N          39.2830   45.0360   54.0200 N.am      4 SEP1        0.0000 
     15 N          35.6000   41.5340   43.6580 N.am      4 SEP1        0.0000 
     16 O          36.1040   44.8410   53.2260 O.2       5 ALP2        0.0000 
     17 O          34.5240   44.2100   51.8380 O.2       5 ALP2        0.0000 
     18 O          35.6000   41.5340   43.6580 O.2       5 ALP2        0.0000 
     19 O          32.6670   45.1270   42.8850 O.2       5 ALP2        0.0000 
     20 CA         45.1080   43.0140   52.0190 C.3       6 GLP5        0.0000 
     21 CA         42.0810   42.5330   46.1730 C.3       6 GLP5        0.0000 
     22 CA         40.2400   47.7030   52.2940 C.3       6 GLP5        0.0000 
     23 CA         40.4870   45.8480   45.7610 C.3       6 GLP5        0.0000 
     24 CA         42.9700   46.2990   49.7570 C.3       6 GLP5        0.0000 
     25 CA         36.2360   40.8320   49.4000 C.3       6 GLP5        0.0000 
     26 N          40.6985   39.3995   50.0520 N.am      7 SEC1        0.0000 
     27 N          39.4685   39.8735   49.3870 N.am      7 SEC1        0.0000 
     28 N          40.9955   41.0445   54.4280 N.am      7 SEC1        0.0000 
     29 N          38.5545   45.0355   52.6785 N.am      7 SEC1        0.0000 
     30 N          36.3845   42.3935   44.8630 N.am      7 SEC1        0.0000 
     31 O          36.9650   44.9380   52.2815 O.2       8 ALC2        0.0000 
     32 O          36.1750   44.6225   51.5875 O.2       8 ALC2        0.0000 
     33 O          35.3275   42.9560   43.9065 O.2       8 ALC2        0.0000 
     34 O          33.8610   44.7525   43.5200 O.2       8 ALC2        0.0000 
     35 CA         43.3185   43.0190   51.2135 C.3       9 GLC5        0.0000 
     36 CA         41.8050   42.7785   48.2905 C.3       9 GLC5        0.0000 
     37 CA         40.2365   45.8010   51.2710 C.3       9 GLC5        0.0000 
     38 CA         39.5350   45.3600   47.4205 C.3       9 GLC5        0.0000 
     39 CA         41.9255   44.8803   50.0425 C.3       9 GLC5        0.0000 
     40 CA         37.3603   42.2210   49.9093 C.3       9 GLC5        0.0000 
@<TRIPOS>BOND
@<TRIPOS>SUBSTRUCTURE
     1 SEL1        1 GROUP        1 Z    SEL  0     ROOT SEL Z 0
     2 ALL2        5 GROUP        1 Z    ALL  0     **** ALL Z 1
     3 GLL5        7 GROUP        1 Z    GLL  0     **** GLL Z 4
     4 SEP1       11 GROUP        1 Z    SEP  0     **** SEP Z 7
     5 ALP2       16 GROUP        1 Z    ALP  0     **** ALP Z 8
     6 GLP5       20 GROUP        1 Z    GLP  0     **** GLP Z 11
     7 SEC1       26 GROUP        1 Z    SEC  0     **** SEC Z 14
     8 ALC2       31 GROUP        1 Z    ALC  0     **** ALC Z 15
     9 GLC5       35 GROUP        1 Z    GLC  0     **** GLC Z 18
@<TRIPOS>SET

