1i6x_CMP_1_ligand
  -OEChem-08111718373D

 33 36  0     1  0  0  0  0  0999 V2000
   35.1563   47.8296   46.7558 H   0  0  0  0  0  0  0  0  0  0  0  0
   38.5546   42.5867   47.3728 H   0  0  0  0  0  0  0  0  0  0  0  0
   41.8464   42.7896   49.4891 H   0  0  0  0  0  0  0  0  0  0  0  0
   42.2165   43.5892   50.8641 H   0  0  0  0  0  0  0  0  0  0  0  0
   40.2896   44.6837   50.8653 H   0  0  0  0  0  0  0  0  0  0  0  0
   38.9288   42.4191   49.8516 H   0  0  0  0  0  0  0  0  0  0  0  0
   37.0954   43.6746   50.0318 H   0  0  0  0  0  0  0  0  0  0  0  0
   38.5805   45.8596   49.2368 H   0  0  0  0  0  0  0  0  0  0  0  0
   34.3635   44.8035   43.5712 H   0  0  0  0  0  0  0  0  0  0  0  0
   35.3963   43.4629   43.9403 H   0  0  0  0  0  0  0  0  0  0  0  0
   37.1482   44.6958   51.9893 H   0  0  0  0  0  0  0  0  0  0  0  0
   35.5340   46.9190   46.5880 C   0  0  0  0  0  0  0  0  0  0  0  0
   37.9370   43.3280   47.1100 C   0  0  0  0  0  0  0  0  0  0  0  0
   36.5030   44.4690   46.0780 C   0  0  0  0  0  0  0  0  0  0  0  0
   36.9070   45.2500   47.1580 C   0  0  0  0  0  0  0  0  0  0  0  0
   35.5220   45.0310   45.2200 C   0  0  0  0  0  0  0  0  0  0  0  0
   41.5290   43.0240   50.4080 C   0  0  1  0  0  0  0  0  0  0  0  0
   40.2330   43.8990   50.2480 C   0  0  2  0  0  0  0  0  0  0  0  0
   39.0030   43.1160   50.5650 C   0  0  2  0  0  0  0  0  0  0  0  0
   37.9660   44.1040   50.2720 C   0  0  2  0  0  0  0  0  0  0  0  0
   38.5830   44.8720   49.0800 C   0  0  2  0  0  0  0  0  0  0  0  0
   36.4540   46.5030   47.4740 N   0  0  0  0  0  0  0  0  0  0  0  0
   35.0480   46.2800   45.5030 N   0  0  0  0  0  0  0  0  0  0  0  0
   37.1690   43.2530   46.0680 N   0  0  0  0  0  0  0  0  0  0  0  0
   37.8430   44.5110   47.8380 N   0  0  0  0  0  0  0  0  0  0  0  0
   35.0550   44.3780   44.1550 N   0  0  0  0  0  0  0  0  0  0  0  0
   39.6490   40.0520   50.9250 O   0  0  0  0  0  0  0  0  0  0  0  0
   41.4170   41.7620   51.1720 O   0  0  0  0  0  0  0  0  0  0  0  0
   39.9270   44.3580   48.9400 O   0  0  0  0  0  0  0  0  0  0  0  0
   39.0100   42.4040   51.8150 O   0  0  0  0  0  0  0  0  0  0  0  0
   37.8260   45.0350   51.3370 O   0  0  0  0  0  0  0  0  0  0  0  0
   40.3680   40.8330   53.2400 O   0  5  0  0  0  0  0  0  0  0  0  0
   40.0360   41.1540   51.8430 P   0  0  1  0  0  0  0  0  0  0  0  0
  1 12  1  0  0  0  0
  2 13  1  0  0  0  0
  3 17  1  0  0  0  0
  4 17  1  0  0  0  0
  5 18  1  0  0  0  0
  6 19  1  0  0  0  0
  7 20  1  0  0  0  0
  8 21  1  0  0  0  0
  9 26  1  0  0  0  0
 10 26  1  0  0  0  0
 11 31  1  0  0  0  0
 12 22  1  0  0  0  0
 12 23  2  0  0  0  0
 13 24  2  0  0  0  0
 13 25  1  0  0  0  0
 14 15  1  0  0  0  0
 14 16  2  0  0  0  0
 14 24  1  0  0  0  0
 15 22  2  0  0  0  0
 15 25  1  0  0  0  0
 16 23  1  0  0  0  0
 16 26  1  0  0  0  0
 17 18  1  0  0  0  0
 17 28  1  0  0  0  0
 18 19  1  0  0  0  0
 18 29  1  0  0  0  0
 19 20  1  0  0  0  0
 19 30  1  0  0  0  0
 20 21  1  0  0  0  0
 20 31  1  0  0  0  0
 21 25  1  0  0  0  0
 21 29  1  0  0  0  0
 27 33  2  0  0  0  0
 28 33  1  0  0  0  0
 30 33  1  0  0  0  0
 32 33  1  0  0  0  0
M  CHG  1  32  -1
M  END
> <scpdb_id>
1i6x_1

$$$$
