1ng9_ADP_1_ligand
  -OEChem-08111718373D

 39 41  0     1  0  0  0  0  0999 V2000
   -6.2433   48.3463   18.0010 H   0  0  0  0  0  0  0  0  0  0  0  0
   -2.9309   45.5052   13.2517 H   0  0  0  0  0  0  0  0  0  0  0  0
    0.1659   45.5777   14.2801 H   0  0  0  0  0  0  0  0  0  0  0  0
   -1.4071   45.5781   15.8097 H   0  0  0  0  0  0  0  0  0  0  0  0
    0.3759   48.3669   13.9732 H   0  0  0  0  0  0  0  0  0  0  0  0
   -2.1611   48.2322   15.7501 H   0  0  0  0  0  0  0  0  0  0  0  0
    0.0749   47.9548   11.7254 H   0  0  0  0  0  0  0  0  0  0  0  0
    1.0339   46.7503   12.2695 H   0  0  0  0  0  0  0  0  0  0  0  0
   -8.5981   45.4930   15.3066 H   0  0  0  0  0  0  0  0  0  0  0  0
   -7.4894   45.0963   14.0363 H   0  0  0  0  0  0  0  0  0  0  0  0
    2.0087   45.9875   15.1659 H   0  0  0  0  0  0  0  0  0  0  0  0
    0.4356   47.0984   16.9545 H   0  0  0  0  0  0  0  0  0  0  0  0
   -6.0210   47.7600   17.2220 C   0  0  0  0  0  0  0  0  0  0  0  0
   -3.5860   45.8440   13.9270 C   0  0  0  0  0  0  0  0  0  0  0  0
   -5.4290   46.1230   15.0530 C   0  0  0  0  0  0  0  0  0  0  0  0
   -4.4630   46.9650   15.6130 C   0  0  0  0  0  0  0  0  0  0  0  0
   -6.6970   46.1010   15.5950 C   0  0  0  0  0  0  0  0  0  0  0  0
    0.1340   46.4630   14.7440 C   0  0  1  0  0  0  0  0  0  0  0  0
   -1.0060   46.4910   15.7340 C   0  0  2  0  0  0  0  0  0  0  0  0
   -0.1750   47.5630   13.7490 C   0  0  1  0  0  0  0  0  0  0  0  0
   -2.0290   47.4510   15.1400 C   0  0  2  0  0  0  0  0  0  0  0  0
    0.1180   47.1490   12.3160 C   0  0  1  0  0  0  0  0  0  0  0  0
   -4.7490   47.7710   16.6770 N   0  0  0  0  0  0  0  0  0  0  0  0
   -6.9850   46.9240   16.6730 N   0  0  0  0  0  0  0  0  0  0  0  0
   -4.8790   45.4530   14.0250 N   0  0  0  0  0  0  0  0  0  0  0  0
   -3.3120   46.7780   14.8980 N   0  0  0  0  0  0  0  0  0  0  0  0
   -7.6740   45.5160   14.9250 N   0  0  0  0  0  0  0  0  0  0  0  0
    0.3100   44.4170    7.8540 O   0  5  0  0  0  0  0  0  0  0  0  0
    0.8250   46.7230    7.2510 O   0  5  0  0  0  0  0  0  0  0  0  0
   -1.5400   44.1250   10.6380 O   0  5  0  0  0  0  0  0  0  0  0  0
   -1.4580   45.9760    6.9330 O   0  0  0  0  0  0  0  0  0  0  0  0
    0.8610   44.8030   10.5220 O   0  0  0  0  0  0  0  0  0  0  0  0
   -1.5360   47.8870   13.8980 O   0  0  0  0  0  0  0  0  0  0  0  0
    1.3740   46.7380   15.3500 O   0  0  0  0  0  0  0  0  0  0  0  0
   -0.5460   46.9130   17.0010 O   0  0  0  0  0  0  0  0  0  0  0  0
   -0.8270   46.1960   11.8720 O   0  0  0  0  0  0  0  0  0  0  0  0
   -0.8290   46.2140    9.2890 O   0  0  0  0  0  0  0  0  0  0  0  0
   -0.2860   45.8350    7.8210 P   0  0  0  0  0  0  0  0  0  0  0  0
   -0.5410   45.2880   10.5710 P   0  0  2  0  0  0  0  0  0  0  0  0
  1 13  1  0  0  0  0
  2 14  1  0  0  0  0
  3 18  1  0  0  0  0
  4 19  1  0  0  0  0
  5 20  1  0  0  0  0
  6 21  1  0  0  0  0
  7 22  1  0  0  0  0
  8 22  1  0  0  0  0
  9 27  1  0  0  0  0
 10 27  1  0  0  0  0
 11 34  1  0  0  0  0
 12 35  1  0  0  0  0
 13 23  1  0  0  0  0
 13 24  2  0  0  0  0
 14 25  2  0  0  0  0
 14 26  1  0  0  0  0
 15 16  1  0  0  0  0
 15 17  2  0  0  0  0
 15 25  1  0  0  0  0
 16 23  2  0  0  0  0
 16 26  1  0  0  0  0
 17 24  1  0  0  0  0
 17 27  1  0  0  0  0
 18 19  1  0  0  0  0
 18 20  1  0  0  0  0
 18 34  1  0  0  0  0
 19 21  1  0  0  0  0
 19 35  1  0  0  0  0
 20 22  1  0  0  0  0
 20 33  1  0  0  0  0
 21 26  1  0  0  0  0
 21 33  1  0  0  0  0
 22 36  1  0  0  0  0
 28 38  1  0  0  0  0
 29 38  1  0  0  0  0
 30 39  1  0  0  0  0
 31 38  2  0  0  0  0
 32 39  2  0  0  0  0
 36 39  1  0  0  0  0
 37 38  1  0  0  0  0
 37 39  1  0  0  0  0
M  CHG  3  28  -1  29  -1  30  -1
M  END
> <scpdb_id>
1ng9_1

$$$$
