3iid_APR_1_ligand
  -OEChem-08111718373D

 57 60  0     1  0  0  0  0  0999 V2000
    5.8375  -33.2405   -4.6547 H   0  0  0  0  0  0  0  0  0  0  0  0
    8.5157  -38.9118   -3.6428 H   0  0  0  0  0  0  0  0  0  0  0  0
    9.0412  -37.9954    0.7771 H   0  0  0  0  0  0  0  0  0  0  0  0
   18.5590  -36.1837    1.8394 H   0  0  0  0  0  0  0  0  0  0  0  0
    8.7124  -38.5989   -1.3697 H   0  0  0  0  0  0  0  0  0  0  0  0
   20.1015  -35.6628    0.2926 H   0  0  0  0  0  0  0  0  0  0  0  0
    8.3853  -35.3800    0.4198 H   0  0  0  0  0  0  0  0  0  0  0  0
   17.1613  -38.2455    0.8716 H   0  0  0  0  0  0  0  0  0  0  0  0
    6.7056  -36.5190   -1.5244 H   0  0  0  0  0  0  0  0  0  0  0  0
   18.2915  -35.6176   -1.1255 H   0  0  0  0  0  0  0  0  0  0  0  0
   10.5171  -35.9066    1.2134 H   0  0  0  0  0  0  0  0  0  0  0  0
   10.6938  -35.0763   -0.1816 H   0  0  0  0  0  0  0  0  0  0  0  0
   16.7309  -35.4802    0.9627 H   0  0  0  0  0  0  0  0  0  0  0  0
   15.9875  -36.1653   -0.3197 H   0  0  0  0  0  0  0  0  0  0  0  0
    7.6155  -36.8804   -8.0193 H   0  0  0  0  0  0  0  0  0  0  0  0
    6.9272  -35.3684   -8.5094 H   0  0  0  0  0  0  0  0  0  0  0  0
    7.4951  -37.4339    2.1404 H   0  0  0  0  0  0  0  0  0  0  0  0
   18.6046  -38.3295    2.6705 H   0  0  0  0  0  0  0  0  0  0  0  0
    6.1055  -38.5745   -0.2880 H   0  0  0  0  0  0  0  0  0  0  0  0
   21.4870  -37.3322    0.3903 H   0  0  0  0  0  0  0  0  0  0  0  0
   20.1489  -35.8784   -2.4309 H   0  0  0  0  0  0  0  0  0  0  0  0
    6.2590  -34.1280   -4.8410 C   0  0  0  0  0  0  0  0  0  0  0  0
    8.1340  -38.0640   -4.0110 C   0  0  0  0  0  0  0  0  0  0  0  0
    7.4450  -36.5720   -5.4210 C   0  0  0  0  0  0  0  0  0  0  0  0
    7.2010  -36.0990   -4.0480 C   0  0  0  0  0  0  0  0  0  0  0  0
    7.0040  -35.6720   -6.4930 C   0  0  0  0  0  0  0  0  0  0  0  0
    8.3240  -37.4560    0.3360 C   0  0  1  0  0  0  0  0  0  0  0  0
   18.7400  -36.9500    1.2230 C   0  0  1  0  0  0  0  0  0  0  0  0
    7.9270  -38.1230   -0.9740 C   0  0  2  0  0  0  0  0  0  0  0  0
   19.6720  -36.5470    0.1090 C   0  0  2  0  0  0  0  0  0  0  0  0
    8.8890  -36.0970   -0.0620 C   0  0  1  0  0  0  0  0  0  0  0  0
   17.4870  -37.3770    0.4980 C   0  0  1  0  0  0  0  0  0  0  0  0
    7.5910  -36.8940   -1.7990 C   0  0  2  0  0  0  0  0  0  0  0  0
   18.7850  -36.4870   -1.1030 C   0  0  2  0  0  0  0  0  0  0  0  0
   10.3820  -35.9360    0.2230 C   0  0  2  0  0  0  0  0  0  0  0  0
   16.3820  -36.3370    0.5830 C   0  0  1  0  0  0  0  0  0  0  0  0
    6.6100  -34.8900   -3.7940 N   0  0  0  0  0  0  0  0  0  0  0  0
    6.4380  -34.4820   -6.1200 N   0  0  0  0  0  0  0  0  0  0  0  0
    8.0350  -37.7770   -5.3300 N   0  0  0  0  0  0  0  0  0  0  0  0
    7.6510  -37.0580   -3.2620 N   0  0  0  0  0  0  0  0  0  0  0  0
    7.1990  -36.0020   -7.7850 N   0  0  0  0  0  0  0  0  0  0  0  0
   13.2550  -38.2940   -0.8650 O   0  5  0  0  0  0  0  0  0  0  0  0
   13.1710  -37.2600    2.5180 O   0  5  0  0  0  0  0  0  0  0  0  0
   12.8720  -36.1920   -2.1350 O   0  0  0  0  0  0  0  0  0  0  0  0
   14.2330  -34.9520    2.4140 O   0  0  0  0  0  0  0  0  0  0  0  0
    8.6560  -35.9650   -1.4820 O   0  0  0  0  0  0  0  0  0  0  0  0
   17.8820  -37.5560   -0.8480 O   0  0  0  0  0  0  0  0  0  0  0  0
    7.1960  -37.3940    1.1870 O   0  0  0  0  0  0  0  0  0  0  0  0
   19.2430  -38.0870    1.9400 O   0  0  0  0  0  0  0  0  0  0  0  0
    6.8510  -39.0390   -0.7660 O   0  0  0  0  0  0  0  0  0  0  0  0
   20.6470  -37.5690   -0.0980 O   0  0  0  0  0  0  0  0  0  0  0  0
   19.5350  -36.6580   -2.3070 O   0  0  0  0  0  0  0  0  0  0  0  0
   11.1750  -37.0170   -0.3200 O   0  0  0  0  0  0  0  0  0  0  0  0
   15.4290  -36.9090    1.4410 O   0  0  0  0  0  0  0  0  0  0  0  0
   13.3820  -35.9460    0.2770 O   0  0  0  0  0  0  0  0  0  0  0  0
   12.6380  -36.8860   -0.8320 P   0  0  1  0  0  0  0  0  0  0  0  0
   13.9940  -36.3060    1.7470 P   0  0  1  0  0  0  0  0  0  0  0  0
  1 22  1  0  0  0  0
  2 23  1  0  0  0  0
  3 27  1  0  0  0  0
  4 28  1  0  0  0  0
  5 29  1  0  0  0  0
  6 30  1  0  0  0  0
  7 31  1  0  0  0  0
  8 32  1  0  0  0  0
  9 33  1  0  0  0  0
 10 34  1  0  0  0  0
 11 35  1  0  0  0  0
 12 35  1  0  0  0  0
 13 36  1  0  0  0  0
 14 36  1  0  0  0  0
 15 41  1  0  0  0  0
 16 41  1  0  0  0  0
 17 48  1  0  0  0  0
 18 49  1  0  0  0  0
 19 50  1  0  0  0  0
 20 51  1  0  0  0  0
 21 52  1  0  0  0  0
 22 37  1  0  0  0  0
 22 38  2  0  0  0  0
 23 39  2  0  0  0  0
 23 40  1  0  0  0  0
 24 25  1  0  0  0  0
 24 26  2  0  0  0  0
 24 39  1  0  0  0  0
 25 37  2  0  0  0  0
 25 40  1  0  0  0  0
 26 38  1  0  0  0  0
 26 41  1  0  0  0  0
 27 29  1  0  0  0  0
 27 31  1  0  0  0  0
 27 48  1  0  0  0  0
 28 30  1  0  0  0  0
 28 32  1  0  0  0  0
 28 49  1  0  0  0  0
 29 33  1  0  0  0  0
 29 50  1  0  0  0  0
 30 34  1  0  0  0  0
 30 51  1  0  0  0  0
 31 35  1  0  0  0  0
 31 46  1  0  0  0  0
 32 36  1  0  0  0  0
 32 47  1  0  0  0  0
 33 40  1  0  0  0  0
 33 46  1  0  0  0  0
 34 47  1  0  0  0  0
 34 52  1  0  0  0  0
 35 53  1  0  0  0  0
 36 54  1  0  0  0  0
 42 56  1  0  0  0  0
 43 57  1  0  0  0  0
 44 56  2  0  0  0  0
 45 57  2  0  0  0  0
 53 56  1  0  0  0  0
 54 57  1  0  0  0  0
 55 56  1  0  0  0  0
 55 57  1  0  0  0  0
M  CHG  2  42  -1  43  -1
M  END
> <scpdb_id>
3iid_1

$$$$
