#    Name: 23443
#    Modification time : Tue Aug  8 23:47:49 2017

@<TRIPOS>MOLECULE
23443
   27     0    12     0     0
SMALL
NO_CHARGES


@<TRIPOS>ATOM
      1 N         -33.1980   11.5530   76.3080 N.am      1 SEL1        0.0000 
      2 N         -31.3960   14.7840   79.2920 N.am      1 SEL1        0.0000 
      3 N         -26.8870   10.7520   81.9540 N.am      1 SEL1        0.0000 
      4 N         -22.9350   14.3040   80.9210 N.am      1 SEL1        0.0000 
      5 O         -23.3640   16.5810   80.8200 O.2       2 ALL2        0.0000 
      6 NZ        -36.7950   13.4690   75.0540 N.4       3 LYL3        0.0000 
      7 CA        -27.7580   12.5310   80.5680 C.3       4 GLL5        0.0000 
      8 N         -33.8590    8.8800   75.5980 N.am      5 SEP1        0.0000 
      9 N         -30.0170   11.2980   76.7620 N.am      5 SEP1        0.0000 
     10 N         -29.6770   16.7830   81.2180 N.am      5 SEP1        0.0000 
     11 N         -29.2130   16.5080   78.1770 N.am      5 SEP1        0.0000 
     12 N         -25.1060    8.5630   81.9540 N.am      5 SEP1        0.0000 
     13 N         -19.9180   14.9340   81.2230 N.am      5 SEP1        0.0000 
     14 O         -20.8470   17.6100   80.9790 O.2       6 ALP2        0.0000 
     15 O         -24.9020   18.4380   78.7660 O.2       6 ALP2        0.0000 
     16 NZ        -37.4080   13.9680   72.4200 N.4       7 LYP3        0.0000 
     17 CA        -29.2930   14.2950   77.0800 C.3       8 GLP5        0.0000 
     18 N         -33.5285   10.2165   75.9530 N.am      9 SEC1        0.0000 
     19 N         -31.6075   11.4255   76.5350 N.am      9 SEC1        0.0000 
     20 N         -30.5365   15.7835   80.2550 N.am      9 SEC1        0.0000 
     21 N         -30.3045   15.6460   78.7345 N.am      9 SEC1        0.0000 
     22 N         -25.9965    9.6575   81.9540 N.am      9 SEC1        0.0000 
     23 N         -21.4265   14.6190   81.0720 N.am      9 SEC1        0.0000 
     24 O         -22.1055   17.0955   80.8995 O.2      10 ALC2        0.0000 
     25 O         -24.1330   17.5095   79.7930 O.2      10 ALC2        0.0000 
     26 NZ        -37.1015   13.7185   73.7370 N.4      11 LYC3        0.0000 
     27 CA        -28.5255   13.4130   78.8240 C.3      12 GLC5        0.0000 
@<TRIPOS>BOND
@<TRIPOS>SUBSTRUCTURE
     1 SEL1        1 GROUP        1 Z    SEL  0     ROOT SEL Z 0
     2 ALL2        5 GROUP        1 Z    ALL  0     **** ALL Z 1
     3 LYL3        6 GROUP        1 Z    LYL  0     **** LYL Z 2
     4 GLL5        7 GROUP        1 Z    GLL  0     **** GLL Z 4
     5 SEP1        8 GROUP        1 Z    SEP  0     **** SEP Z 7
     6 ALP2       14 GROUP        1 Z    ALP  0     **** ALP Z 8
     7 LYP3       16 GROUP        1 Z    LYP  0     **** LYP Z 9
     8 GLP5       17 GROUP        1 Z    GLP  0     **** GLP Z 11
     9 SEC1       18 GROUP        1 Z    SEC  0     **** SEC Z 14
    10 ALC2       24 GROUP        1 Z    ALC  0     **** ALC Z 15
    11 LYC3       26 GROUP        1 Z    LYC  0     **** LYC Z 16
    12 GLC5       27 GROUP        1 Z    GLC  0     **** GLC Z 18
@<TRIPOS>SET

