1qsy_DDS_1_ligand
  -OEChem-08111718373D

 41 43  0     1  0  0  0  0  0999 V2000
   -9.6193   26.1453  -11.4038 H   0  0  0  0  0  0  0  0  0  0  0  0
   -5.5981   25.6788   -6.6745 H   0  0  0  0  0  0  0  0  0  0  0  0
   -7.0414   24.6172   -5.0286 H   0  0  0  0  0  0  0  0  0  0  0  0
   -8.3043   24.4930   -4.0009 H   0  0  0  0  0  0  0  0  0  0  0  0
   -8.8026   24.3108   -6.5199 H   0  0  0  0  0  0  0  0  0  0  0  0
   -9.8214   25.2114   -5.6158 H   0  0  0  0  0  0  0  0  0  0  0  0
   -8.5154   26.7703   -3.8029 H   0  0  0  0  0  0  0  0  0  0  0  0
   -9.1603   26.8513   -7.0343 H   0  0  0  0  0  0  0  0  0  0  0  0
   -6.4832   26.3677   -2.7344 H   0  0  0  0  0  0  0  0  0  0  0  0
   -6.3977   27.7972   -3.5191 H   0  0  0  0  0  0  0  0  0  0  0  0
   -4.5446   25.5793  -11.1322 H   0  0  0  0  0  0  0  0  0  0  0  0
   -5.4503   25.6741  -12.6055 H   0  0  0  0  0  0  0  0  0  0  0  0
   -8.7710   26.0550  -10.8820 C   0  0  0  0  0  0  0  0  0  0  0  0
   -6.0630   25.7710   -7.5550 C   0  0  0  0  0  0  0  0  0  0  0  0
   -6.4900   25.8060   -9.6020 C   0  0  0  0  0  0  0  0  0  0  0  0
   -7.6880   25.9480   -9.0050 C   0  0  0  0  0  0  0  0  0  0  0  0
   -6.5050   25.7990  -10.9310 C   0  0  0  0  0  0  0  0  0  0  0  0
   -7.9120   25.0240   -4.7520 C   0  0  2  0  0  0  0  0  0  0  0  0
   -8.8760   25.1120   -5.9260 C   0  0  1  0  0  0  0  0  0  0  0  0
   -7.7380   26.4820   -4.3620 C   0  0  1  0  0  0  0  0  0  0  0  0
   -8.3870   26.3670   -6.6250 C   0  0  2  0  0  0  0  0  0  0  0  0
   -6.4480   26.8050   -3.6330 C   0  0  2  0  0  0  0  0  0  0  0  0
   -8.8900   26.0790   -9.5990 N   0  0  0  0  0  0  0  0  0  0  0  0
   -7.6850   25.9280  -11.5780 N   0  0  0  0  0  0  0  0  0  0  0  0
   -5.4590   25.6920   -8.6810 N   0  0  0  0  0  0  0  0  0  0  0  0
   -7.4130   25.9950   -7.6760 N   0  0  0  0  0  0  0  0  0  0  0  0
   -5.4200   25.6750  -11.6060 N   0  0  0  0  0  0  0  0  0  0  0  0
   -3.0130   21.0260   -0.4880 O   0  5  0  0  0  0  0  0  0  0  0  0
   -1.9280   22.1410   -2.3950 O   0  5  0  0  0  0  0  0  0  0  0  0
   -3.8480   25.4190   -2.4600 O   0  5  0  0  0  0  0  0  0  0  0  0
   -6.2500   23.6740   -1.8910 O   0  5  0  0  0  0  0  0  0  0  0  0
   -2.8850   23.4260   -0.7230 O   0  0  0  0  0  0  0  0  0  0  0  0
   -2.9550   25.3820   -4.8370 O   0  0  0  0  0  0  0  0  0  0  0  0
   -6.3900   22.2240   -3.8020 O   0  0  0  0  0  0  0  0  0  0  0  0
   -7.7680   27.1910   -5.6300 O   0  0  0  0  0  0  0  0  0  0  0  0
   -5.2010   26.3560   -4.3150 O   0  0  0  0  0  0  0  0  0  0  0  0
   -4.4000   22.0690   -2.2870 O   0  0  0  0  0  0  0  0  0  0  0  0
   -4.8290   23.9870   -4.0310 O   0  0  0  0  0  0  0  0  0  0  0  0
   -3.0490   22.1830   -1.3830 P   0  0  0  0  0  0  0  0  0  0  0  0
   -4.1010   25.3400   -3.8920 P   0  0  2  0  0  0  0  0  0  0  0  0
   -5.5330   23.0170   -2.9590 P   0  0  2  0  0  0  0  0  0  0  0  0
  1 13  1  0  0  0  0
  2 14  1  0  0  0  0
  3 18  1  0  0  0  0
  4 18  1  0  0  0  0
  5 19  1  0  0  0  0
  6 19  1  0  0  0  0
  7 20  1  0  0  0  0
  8 21  1  0  0  0  0
  9 22  1  0  0  0  0
 10 22  1  0  0  0  0
 11 27  1  0  0  0  0
 12 27  1  0  0  0  0
 13 23  1  0  0  0  0
 13 24  2  0  0  0  0
 14 25  2  0  0  0  0
 14 26  1  0  0  0  0
 15 16  1  0  0  0  0
 15 17  2  0  0  0  0
 15 25  1  0  0  0  0
 16 23  2  0  0  0  0
 16 26  1  0  0  0  0
 17 24  1  0  0  0  0
 17 27  1  0  0  0  0
 18 19  1  0  0  0  0
 18 20  1  0  0  0  0
 19 21  1  0  0  0  0
 20 22  1  0  0  0  0
 20 35  1  0  0  0  0
 21 26  1  0  0  0  0
 21 35  1  0  0  0  0
 22 36  1  0  0  0  0
 28 39  1  0  0  0  0
 29 39  1  0  0  0  0
 30 40  1  0  0  0  0
 31 41  1  0  0  0  0
 32 39  2  0  0  0  0
 33 40  2  0  0  0  0
 34 41  2  0  0  0  0
 36 40  1  0  0  0  0
 37 39  1  0  0  0  0
 37 41  1  0  0  0  0
 38 40  1  0  0  0  0
 38 41  1  0  0  0  0
M  CHG  4  30  -1  31  -1  28  -1  29  -1
M  END
> <scpdb_id>
1qsy_1

$$$$
