@<TRIPOS>MOLECULE
1qsy_DDS_1_ligand
   41    43     1     0     0
SMALL
NO_CHARGES


@<TRIPOS>ATOM
     1 N1          -7.6850    25.9280   -11.5780 N.ar         1 DDS113   0.0000
     2 C2          -8.7710    26.0550   -10.8820 C.ar         1 DDS113   0.0000
     3 N3          -8.8900    26.0790    -9.5990 N.ar         1 DDS113   0.0000
     4 C4          -7.6880    25.9480    -9.0050 C.ar         1 DDS113   0.0000
     5 C5          -6.4900    25.8060    -9.6020 C.ar         1 DDS113   0.0000
     6 C6          -6.5050    25.7990   -10.9310 C.ar         1 DDS113   0.0000
     7 N6          -5.4200    25.6750   -11.6060 N.pl3        1 DDS113   0.0000
     8 N7          -5.4590    25.6920    -8.6810 N.2          1 DDS113   0.0000
     9 C8          -6.0630    25.7710    -7.5550 C.2          1 DDS113   0.0000
    10 N9          -7.4130    25.9950    -7.6760 N.pl3        1 DDS113   0.0000
    11 PA          -4.1010    25.3400    -3.8920 P.3          1 DDS113   0.0000
    12 PB          -5.5330    23.0170    -2.9590 P.3          1 DDS113   0.0000
    13 PG          -3.0490    22.1830    -1.3830 P.3          1 DDS113   0.0000
    14 C1'         -8.3870    26.3670    -6.6250 C.3          1 DDS113   0.0000
    15 O1A         -2.9550    25.3820    -4.8370 O.co2        1 DDS113   0.0000
    16 O1B         -6.3900    22.2240    -3.8020 O.co2        1 DDS113   0.0000
    17 O1G         -2.8850    23.4260    -0.7230 O.co2        1 DDS113   0.0000
    18 C2'         -8.8760    25.1120    -5.9260 C.3          1 DDS113   0.0000
    19 O2A         -3.8480    25.4190    -2.4600 O.co2        1 DDS113  -1.0000
    20 O2B         -6.2500    23.6740    -1.8910 O.co2        1 DDS113  -1.0000
    21 O2G         -3.0130    21.0260    -0.4880 O.co2        1 DDS113  -1.0000
    22 C3'         -7.9120    25.0240    -4.7520 C.3          1 DDS113   0.0000
    23 O3A         -4.8290    23.9870    -4.0310 O.3          1 DDS113   0.0000
    24 O3B         -4.4000    22.0690    -2.2870 O.3          1 DDS113   0.0000
    25 O3G         -1.9280    22.1410    -2.3950 O.co2        1 DDS113  -1.0000
    26 C4'         -7.7380    26.4820    -4.3620 C.3          1 DDS113   0.0000
    27 O4'         -7.7680    27.1910    -5.6300 O.3          1 DDS113   0.0000
    28 C5'         -6.4480    26.8050    -3.6330 C.3          1 DDS113   0.0000
    29 O5'         -5.2010    26.3560    -4.3150 O.3          1 DDS113   0.0000
    30 H1          -9.6193    26.1453   -11.4038 H            1 DDS113   0.0000
    31 H2          -4.5446    25.5793   -11.1322 H            1 DDS113   0.0000
    32 H3          -5.4503    25.6741   -12.6055 H            1 DDS113   0.0000
    33 H4          -5.5981    25.6788    -6.6745 H            1 DDS113   0.0000
    34 H1'         -9.1603    26.8513    -7.0343 H            1 DDS113   0.0000
    35 H2'1        -8.8026    24.3108    -6.5199 H            1 DDS113   0.0000
    36 H2'2        -9.8214    25.2114    -5.6158 H            1 DDS113   0.0000
    37 H3'1        -7.0414    24.6172    -5.0286 H            1 DDS113   0.0000
    38 H3'2        -8.3043    24.4930    -4.0009 H            1 DDS113   0.0000
    39 H4'         -8.5154    26.7703    -3.8029 H            1 DDS113   0.0000
    40 H5'1        -6.4832    26.3677    -2.7344 H            1 DDS113   0.0000
    41 H5'2        -6.3977    27.7972    -3.5191 H            1 DDS113   0.0000
@<TRIPOS>BOND
     1    1    2      ar
     2    1    6      ar
     3    2    3      ar
     4    3    4      ar
     5    4    5      ar
     6    4   10       1
     7    5    6      ar
     8    5    8       1
     9    6    7       1
    10    8    9       2
    11    9   10       1
    12   10   14       1
    13   11   15      ar
    14   11   19      ar
    15   11   23       1
    16   11   29       1
    17   12   16      ar
    18   12   20      ar
    19   12   23       1
    20   12   24       1
    21   13   17      ar
    22   13   21      ar
    23   13   24       1
    24   13   25      ar
    25   14   18       1
    26   14   27       1
    27   18   22       1
    28   22   26       1
    29   26   27       1
    30   26   28       1
    31   28   29       1
    32    2   30       1
    33    7   31       1
    34    7   32       1
    35    9   33       1
    36   14   34       1
    37   28   41       1
    38   28   40       1
    39   26   39       1
    40   18   35       1
    41   18   36       1
    42   22   38       1
    43   22   37       1
@<TRIPOS>SUBSTRUCTURE
     1 DDS113      1 GROUP             4 A     DDS     0 **** DDS A 113
