#    Name: 39019
#    Modification time : Wed Aug  9 01:14:08 2017

@<TRIPOS>MOLECULE
39019
   55     0     6     0     0
SMALL
NO_CHARGES


@<TRIPOS>ATOM
      1 N          11.7470    6.1620   10.3290 N.am      1 SEL1        0.0000 
      2 CA         15.0320    6.0240   10.0040 C.3       2 GLL5        0.0000 
      3 CA         14.6530    4.2700    8.1860 C.3       2 GLL5        0.0000 
      4 CA         13.8410    1.0320    6.4880 C.3       2 GLL5        0.0000 
      5 CA         11.6630   -2.3020    4.4280 C.3       2 GLL5        0.0000 
      6 CA         13.5050    2.6820   11.8430 C.3       2 GLL5        0.0000 
      7 CA         11.1180    4.2820   11.5830 C.3       2 GLL5        0.0000 
      8 CA         15.9430   -1.3870   10.8080 C.3       2 GLL5        0.0000 
      9 CA         14.0000    2.9070    8.1410 C.3       2 GLL5        0.0000 
     10 CA         13.5710   -0.4260    4.6150 C.3       2 GLL5        0.0000 
     11 CA         12.0910   -0.5760    6.4440 C.3       2 GLL5        0.0000 
     12 CA         12.7700    0.4320    7.0840 C.3       2 GLL5        0.0000 
     13 CA         14.4410    0.5820   11.1440 C.3       2 GLL5        0.0000 
     14 N          11.5980    8.0400    7.9660 N.am      3 SEP1        0.0000 
     15 CA         16.1210    5.7430   14.0830 C.3       4 GLP5        0.0000 
     16 CA         17.6320    3.0030   11.1930 C.3       4 GLP5        0.0000 
     17 CA         18.7970    6.4580    9.6240 C.3       4 GLP5        0.0000 
     18 CA         14.4090    9.2770   12.5320 C.3       4 GLP5        0.0000 
     19 CA         16.3560    9.5770    8.4350 C.3       4 GLP5        0.0000 
     20 CA         11.0630    5.0560    5.8650 C.3       4 GLP5        0.0000 
     21 CA         10.5490    3.6780    6.2760 C.3       4 GLP5        0.0000 
     22 CA         11.6550   -4.1500    7.7590 C.3       4 GLP5        0.0000 
     23 CA         10.6100    0.9260    1.7820 C.3       4 GLP5        0.0000 
     24 CA         13.6310    5.7010   14.4360 C.3       4 GLP5        0.0000 
     25 CA          7.2440    3.9710   11.4830 C.3       4 GLP5        0.0000 
     26 CA         10.1250    3.6660    7.7530 C.3       4 GLP5        0.0000 
     27 CA         18.8280    1.0960   10.0850 C.3       4 GLP5        0.0000 
     28 CA          9.9900   -1.0890    9.8040 C.3       4 GLP5        0.0000 
     29 CA          9.6980    2.3070    8.2620 C.3       4 GLP5        0.0000 
     30 CA         10.5550   -0.1100   10.7730 C.3       4 GLP5        0.0000 
     31 CA          8.4070   -0.7430    5.4600 C.3       4 GLP5        0.0000 
     32 N          11.6725    7.1010    9.1475 N.am      5 SEC1        0.0000 
     33 CA         15.5765    5.8835   12.0435 C.3       6 GLC5        0.0000 
     34 CA         16.3320    4.5135   10.5985 C.3       6 GLC5        0.0000 
     35 CA         16.9145    6.2410    9.8140 C.3       6 GLC5        0.0000 
     36 CA         14.7205    7.6505   11.2680 C.3       6 GLC5        0.0000 
     37 CA         15.6940    7.8005    9.2195 C.3       6 GLC5        0.0000 
     38 CA         16.1425    3.6365    9.6895 C.3       6 GLC5        0.0000 
     39 CA         12.8580    4.6630    7.0255 C.3       6 GLC5        0.0000 
     40 CA         12.1950    2.3550    6.3820 C.3       6 GLC5        0.0000 
     41 CA         11.6590   -3.2260    6.0935 C.3       6 GLC5        0.0000 
     42 CA         11.1365   -0.6880    3.1050 C.3       6 GLC5        0.0000 
     43 CA         13.5680    4.1915   13.1395 C.3       6 GLC5        0.0000 
     44 CA          9.1810    4.1265   11.5330 C.3       6 GLC5        0.0000 
     45 CA         12.3745    4.9915   13.0095 C.3       6 GLC5        0.0000 
     46 CA         10.6215    3.9740    9.6680 C.3       6 GLC5        0.0000 
     47 CA         17.3855   -0.1455   10.4465 C.3       6 GLC5        0.0000 
     48 CA         12.0570    3.1350    8.2920 C.3       6 GLC5        0.0000 
     49 CA         11.8240    0.1080    3.3523 C.3       6 GLC5        0.0000 
     50 CA         11.2102   -0.5805    8.2840 C.3       6 GLC5        0.0000 
     51 CA         11.0643    1.1175    7.5130 C.3       6 GLC5        0.0000 
     52 CA         12.5568   -0.4275   11.3717 C.3       6 GLC5        0.0000 
     53 CA         10.2990   -0.9798    5.3965 C.3       6 GLC5        0.0000 
     54 CA         12.3264    0.6884   10.9247 C.3       6 GLC5        0.0000 
     55 CA         15.8649    2.2449   11.1347 C.3       6 GLC5        0.0000 
@<TRIPOS>BOND
@<TRIPOS>SUBSTRUCTURE
     1 SEL1        1 GROUP        1 Z    SEL  0     ROOT SEL Z 0
     2 GLL5        2 GROUP        1 Z    GLL  0     **** GLL Z 4
     3 SEP1       14 GROUP        1 Z    SEP  0     **** SEP Z 7
     4 GLP5       15 GROUP        1 Z    GLP  0     **** GLP Z 11
     5 SEC1       32 GROUP        1 Z    SEC  0     **** SEC Z 14
     6 GLC5       33 GROUP        1 Z    GLC  0     **** GLC Z 18
@<TRIPOS>SET

