3ix4_TX1_7_ligand
  -OEChem-08111718373D

 44 46  0     1  0  0  0  0  0999 V2000
   33.9137   21.7235  -46.4396 H   0  0  0  0  0  0  0  0  0  0  0  0
   30.1029   30.7271  -47.1305 H   0  0  0  0  0  0  0  0  0  0  0  0
   35.9507   20.5228  -46.6674 H   0  0  0  0  0  0  0  0  0  0  0  0
   29.4312   32.9983  -46.9863 H   0  0  0  0  0  0  0  0  0  0  0  0
   33.8905   23.9998  -45.7372 H   0  0  0  0  0  0  0  0  0  0  0  0
   32.3023   30.0571  -46.4753 H   0  0  0  0  0  0  0  0  0  0  0  0
   38.0413   21.5589  -46.1733 H   0  0  0  0  0  0  0  0  0  0  0  0
   30.9174   34.6845  -46.1785 H   0  0  0  0  0  0  0  0  0  0  0  0
   37.9010   27.4240  -45.2427 H   0  0  0  0  0  0  0  0  0  0  0  0
   39.4405   31.1743  -46.1793 H   0  0  0  0  0  0  0  0  0  0  0  0
   34.4808   28.2072  -46.1707 H   0  0  0  0  0  0  0  0  0  0  0  0
   34.9341   27.8874  -44.6349 H   0  0  0  0  0  0  0  0  0  0  0  0
   35.5441   26.2766  -46.9441 H   0  0  0  0  0  0  0  0  0  0  0  0
   34.7780   22.1830  -46.2350 C   0  0  0  0  0  0  0  0  0  0  0  0
   30.7470   31.4100  -46.7860 C   0  0  0  0  0  0  0  0  0  0  0  0
   35.9720   21.4760  -46.3660 C   0  0  0  0  0  0  0  0  0  0  0  0
   30.3550   32.7430  -46.7010 C   0  0  0  0  0  0  0  0  0  0  0  0
   34.7600   23.5140  -45.8260 C   0  0  0  0  0  0  0  0  0  0  0  0
   32.0260   31.0150  -46.3970 C   0  0  0  0  0  0  0  0  0  0  0  0
   37.1920   22.0790  -46.0830 C   0  0  0  0  0  0  0  0  0  0  0  0
   31.2180   33.7320  -46.2280 C   0  0  0  0  0  0  0  0  0  0  0  0
   37.7300   28.3680  -45.5250 C   0  0  0  0  0  0  0  0  0  0  0  0
   38.6400   30.5840  -46.0760 C   0  0  0  0  0  0  0  0  0  0  0  0
   35.9530   24.1640  -45.5420 C   0  0  0  0  0  0  0  0  0  0  0  0
   32.9160   31.9620  -45.8990 C   0  0  0  0  0  0  0  0  0  0  0  0
   36.4220   28.7960  -45.7530 C   0  0  0  0  0  0  0  0  0  0  0  0
   37.2280   23.4040  -45.6750 C   0  0  0  0  0  0  0  0  0  0  0  0
   36.2120   30.1990  -46.1560 C   0  0  0  0  0  0  0  0  0  0  0  0
   32.5020   33.3770  -45.8260 C   0  0  0  0  0  0  0  0  0  0  0  0
   38.8030   29.2480  -45.6880 C   0  0  0  0  0  0  0  0  0  0  0  0
   37.3680   31.0920  -46.3180 C   0  0  0  0  0  0  0  0  0  0  0  0
   35.9170   25.5920  -45.0910 C   0  0  0  0  0  0  0  0  0  0  0  0
   34.2820   31.5280  -45.4880 C   0  0  0  0  0  0  0  0  0  0  0  0
   35.2270   27.8800  -45.5910 C   0  0  2  0  0  0  0  0  0  0  0  0
   35.5700   26.5220  -45.9750 N   0  0  0  0  0  0  0  0  0  0  0  0
   38.4660   24.0000  -45.4170 N   0  3  0  0  0  0  0  0  0  0  0  0
   38.6550   25.3330  -45.7390 O   0  5  0  0  0  0  0  0  0  0  0  0
   36.2160   25.8490  -43.9270 O   0  0  0  0  0  0  0  0  0  0  0  0
   34.8210   31.8470  -44.4420 O   0  0  0  0  0  0  0  0  0  0  0  0
   39.3680   23.3360  -44.9420 O   0  0  0  0  0  0  0  0  0  0  0  0
   34.9640   30.6720  -46.4120 O   0  0  0  0  0  0  0  0  0  0  0  0
   33.6440   34.5980  -45.2090 Cl  0  0  0  0  0  0  0  0  0  0  0  0
   40.5420   28.5950  -45.3790 Br  0  0  0  0  0  0  0  0  0  0  0  0
   37.0540   32.8740  -46.8530 Br  0  0  0  0  0  0  0  0  0  0  0  0
  1 14  1  0  0  0  0
  2 15  1  0  0  0  0
  3 16  1  0  0  0  0
  4 17  1  0  0  0  0
  5 18  1  0  0  0  0
  6 19  1  0  0  0  0
  7 20  1  0  0  0  0
  8 21  1  0  0  0  0
  9 22  1  0  0  0  0
 10 23  1  0  0  0  0
 11 34  1  0  0  0  0
 12 34  1  0  0  0  0
 13 35  1  0  0  0  0
 14 16  2  0  0  0  0
 14 18  1  0  0  0  0
 15 17  2  0  0  0  0
 15 19  1  0  0  0  0
 16 20  1  0  0  0  0
 17 21  1  0  0  0  0
 18 24  2  0  0  0  0
 19 25  2  0  0  0  0
 20 27  2  0  0  0  0
 21 29  2  0  0  0  0
 22 26  2  0  0  0  0
 22 30  1  0  0  0  0
 23 30  2  0  0  0  0
 23 31  1  0  0  0  0
 24 27  1  0  0  0  0
 24 32  1  0  0  0  0
 25 29  1  0  0  0  0
 25 33  1  0  0  0  0
 26 28  1  0  0  0  0
 26 34  1  0  0  0  0
 27 36  1  0  0  0  0
 28 31  2  0  0  0  0
 28 41  1  0  0  0  0
 29 42  1  0  0  0  0
 30 43  1  0  0  0  0
 31 44  1  0  0  0  0
 32 35  1  0  0  0  0
 32 38  2  0  0  0  0
 33 39  2  0  0  0  0
 33 41  1  0  0  0  0
 34 35  1  0  0  0  0
 36 37  1  0  0  0  0
 36 40  2  0  0  0  0
M  CHG  2  36   1  37  -1
M  END
> <scpdb_id>
3ix4_7

$$$$
