#    Name: 23282
#    Modification time : Tue Aug  8 22:36:37 2017

@<TRIPOS>MOLECULE
23282
   84     0     9     0     0
SMALL
NO_CHARGES


@<TRIPOS>ATOM
      1 N          41.2720   25.1960   15.2950 N.am      1 SEL1        0.0000 
      2 O          38.3530   28.4230   11.2960 O.2       2 ALL2        0.0000 
      3 O          43.4710   27.7710   12.1700 O.2       2 ALL2        0.0000 
      4 CA         41.1150   29.0380    7.6490 C.3       3 GLL5        0.0000 
      5 CA         40.6080   28.5240    9.0420 C.3       3 GLL5        0.0000 
      6 CA         42.5320   26.6100    9.3350 C.3       3 GLL5        0.0000 
      7 CA         43.0420   25.9020   10.5710 C.3       3 GLL5        0.0000 
      8 CA         40.0960   26.1200   10.9890 C.3       3 GLL5        0.0000 
      9 CA         37.5760   29.6320    8.7720 C.3       3 GLL5        0.0000 
     10 CA         41.7310   26.2440   14.4560 C.3       3 GLL5        0.0000 
     11 CA         37.1130   34.0970   10.2160 C.3       3 GLL5        0.0000 
     12 CA         37.7090   34.5830    5.4750 C.3       3 GLL5        0.0000 
     13 CA         37.4310   36.6720    6.5250 C.3       3 GLL5        0.0000 
     14 CA         37.4230   37.4170    5.1480 C.3       3 GLL5        0.0000 
     15 CA         40.9330   30.6630    5.7050 C.3       3 GLL5        0.0000 
     16 CA         44.5620   25.9160   10.4890 C.3       3 GLL5        0.0000 
     17 CA         39.5070   29.2590   11.3730 C.3       3 GLL5        0.0000 
     18 CA         41.7200   27.8560    9.9030 C.3       3 GLL5        0.0000 
     19 CA         37.5650   36.6330    3.9300 C.3       3 GLL5        0.0000 
     20 CA         37.5950   35.2410    6.7120 C.3       3 GLL5        0.0000 
     21 CA         37.6920   35.1850    4.2520 C.3       3 GLL5        0.0000 
     22 N          38.2160   26.5930   15.6120 N.am      4 SEP1        0.0000 
     23 O          37.8580   26.9860   13.4460 O.2       5 ALP2        0.0000 
     24 O          45.4880   26.9130   13.6640 O.2       5 ALP2        0.0000 
     25 CA         40.2070   26.3640    5.2630 C.3       6 GLP5        0.0000 
     26 CA         44.8540   30.0900    8.7940 C.3       6 GLP5        0.0000 
     27 CA         39.8840   25.1000    6.4740 C.3       6 GLP5        0.0000 
     28 CA         45.3690   27.4010    6.3220 C.3       6 GLP5        0.0000 
     29 CA         45.5550   23.0360   11.0180 C.3       6 GLP5        0.0000 
     30 CA         38.7750   22.4890    9.7580 C.3       6 GLP5        0.0000 
     31 CA         37.2570   23.7120   13.2110 C.3       6 GLP5        0.0000 
     32 CA         36.1520   26.1120    6.6190 C.3       6 GLP5        0.0000 
     33 CA         36.8510   30.7090    4.9640 C.3       6 GLP5        0.0000 
     34 CA         42.1170   28.5240   17.3610 C.3       6 GLP5        0.0000 
     35 CA         41.1470   22.4960   16.2220 C.3       6 GLP5        0.0000 
     36 CA         34.6680   36.0540   11.5040 C.3       6 GLP5        0.0000 
     37 CA         40.5470   35.2310    9.6620 C.3       6 GLP5        0.0000 
     38 CA         41.8100   36.7470    6.0110 C.3       6 GLP5        0.0000 
     39 CA         39.7850   37.5630   10.2150 C.3       6 GLP5        0.0000 
     40 CA         38.1620   41.4810    4.1290 C.3       6 GLP5        0.0000 
     41 CA         37.5350   30.0660    3.7730 C.3       6 GLP5        0.0000 
     42 CA         42.3700   29.8740    1.8280 C.3       6 GLP5        0.0000 
     43 CA         42.7070   34.4520    6.2580 C.3       6 GLP5        0.0000 
     44 CA         44.7140   31.6340    7.9290 C.3       6 GLP5        0.0000 
     45 CA         47.6580   27.9050   11.6300 C.3       6 GLP5        0.0000 
     46 CA         47.0490   23.1350   10.9460 C.3       6 GLP5        0.0000 
     47 CA         39.6910   32.3150   13.7390 C.3       6 GLP5        0.0000 
     48 CA         37.4000   35.3830    0.5000 C.3       6 GLP5        0.0000 
     49 CA         34.0910   34.5670    6.3650 C.3       6 GLP5        0.0000 
     50 CA         41.2640   35.0640    4.2850 C.3       6 GLP5        0.0000 
     51 N          39.7440   25.8945   15.4535 N.am      7 SEC1        0.0000 
     52 O          38.1055   27.7045   12.3710 O.2       8 ALC2        0.0000 
     53 O          44.4795   27.3420   12.9170 O.2       8 ALC2        0.0000 
     54 CA         40.6610   27.7010    6.4560 C.3       9 GLC5        0.0000 
     55 CA         42.9845   29.5640    8.2215 C.3       9 GLC5        0.0000 
     56 CA         40.2460   26.8120    7.7580 C.3       9 GLC5        0.0000 
     57 CA         41.2080   25.8550    7.9045 C.3       9 GLC5        0.0000 
     58 CA         43.9505   27.0055    7.8285 C.3       9 GLC5        0.0000 
     59 CA         44.2985   24.4690   10.7945 C.3       9 GLC5        0.0000 
     60 CA         39.4355   24.3045   10.3735 C.3       9 GLC5        0.0000 
     61 CA         38.6765   24.9160   12.1000 C.3       9 GLC5        0.0000 
     62 CA         36.8640   27.8720    7.6955 C.3       9 GLC5        0.0000 
     63 CA         37.2135   30.1705    6.8680 C.3       9 GLC5        0.0000 
     64 CA         41.9240   27.3840   15.9085 C.3       9 GLC5        0.0000 
     65 CA         41.4390   24.3700   15.3390 C.3       9 GLC5        0.0000 
     66 CA         35.8905   35.0755   10.8600 C.3       9 GLC5        0.0000 
     67 CA         38.8300   34.6640    9.9390 C.3       9 GLC5        0.0000 
     68 CA         37.2800   32.6460    5.2195 C.3       9 GLC5        0.0000 
     69 CA         39.6205   36.7095    6.2680 C.3       9 GLC5        0.0000 
     70 CA         38.6080   37.1175    8.3700 C.3       9 GLC5        0.0000 
     71 CA         37.7925   39.4490    4.6385 C.3       9 GLC5        0.0000 
     72 CA         40.5700   28.5135    5.4840 C.3       9 GLC5        0.0000 
     73 CA         39.2340   30.3645    4.7390 C.3       9 GLC5        0.0000 
     74 CA         41.6515   30.2685    3.7665 C.3       9 GLC5        0.0000 
     75 CA         41.8200   32.5575    5.9815 C.3       9 GLC5        0.0000 
     76 CA         42.8235   31.1485    6.8170 C.3       9 GLC5        0.0000 
     77 CA         46.1100   26.9105   11.0595 C.3       9 GLC5        0.0000 
     78 CA         44.9655   26.6585    8.4055 C.3       9 GLC5        0.0000 
     79 CA         45.8055   24.5255   10.7175 C.3       9 GLC5        0.0000 
     80 CA         39.8600   30.5917   12.7498 C.3       9 GLC5        0.0000 
     81 CA         43.4900   28.6615    9.2065 C.3       9 GLC5        0.0000 
     82 CA         37.5143   35.6460    2.2955 C.3       9 GLC5        0.0000 
     83 CA         35.8560   34.9525    5.9757 C.3       9 GLC5        0.0000 
     84 CA         39.4532   35.1996    4.7651 C.3       9 GLC5        0.0000 
@<TRIPOS>BOND
@<TRIPOS>SUBSTRUCTURE
     1 SEL1        1 GROUP        1 Z    SEL  0     ROOT SEL Z 0
     2 ALL2        2 GROUP        1 Z    ALL  0     **** ALL Z 1
     3 GLL5        4 GROUP        1 Z    GLL  0     **** GLL Z 4
     4 SEP1       22 GROUP        1 Z    SEP  0     **** SEP Z 7
     5 ALP2       23 GROUP        1 Z    ALP  0     **** ALP Z 8
     6 GLP5       25 GROUP        1 Z    GLP  0     **** GLP Z 11
     7 SEC1       51 GROUP        1 Z    SEC  0     **** SEC Z 14
     8 ALC2       52 GROUP        1 Z    ALC  0     **** ALC Z 15
     9 GLC5       54 GROUP        1 Z    GLC  0     **** GLC Z 18
@<TRIPOS>SET

