3c23_3AT_1_ligand
  -OEChem-08111718373D

 42 44  0     1  0  0  0  0  0999 V2000
  -22.6984   12.3087   80.9986 H   0  0  0  0  0  0  0  0  0  0  0  0
  -28.2488   15.2932   80.4485 H   0  0  0  0  0  0  0  0  0  0  0  0
  -29.2446   10.3842   82.2046 H   0  0  0  0  0  0  0  0  0  0  0  0
  -29.6623   11.8103   82.8817 H   0  0  0  0  0  0  0  0  0  0  0  0
  -27.5427   12.5258   82.6653 H   0  0  0  0  0  0  0  0  0  0  0  0
  -29.8625   11.0653   80.1143 H   0  0  0  0  0  0  0  0  0  0  0  0
  -27.4569   11.8881   79.8638 H   0  0  0  0  0  0  0  0  0  0  0  0
  -31.7672   11.5629   81.6604 H   0  0  0  0  0  0  0  0  0  0  0  0
  -31.3126   13.1266   81.5391 H   0  0  0  0  0  0  0  0  0  0  0  0
  -22.3852   16.7713   80.8961 H   0  0  0  0  0  0  0  0  0  0  0  0
  -24.0157   17.3357   80.7447 H   0  0  0  0  0  0  0  0  0  0  0  0
  -26.0815   10.9638   81.4005 H   0  0  0  0  0  0  0  0  0  0  0  0
  -23.3640   13.0510   80.9210 C   0  0  0  0  0  0  0  0  0  0  0  0
  -27.2980   14.9960   80.5360 C   0  0  0  0  0  0  0  0  0  0  0  0
  -25.1540   15.0480   80.7140 C   0  0  0  0  0  0  0  0  0  0  0  0
  -25.5640   13.7290   80.7170 C   0  0  0  0  0  0  0  0  0  0  0  0
  -23.7990   15.3240   80.8190 C   0  0  0  0  0  0  0  0  0  0  0  0
  -29.2180   11.3780   82.0970 C   0  0  1  0  0  0  0  0  0  0  0  0
  -27.7780   11.8710   81.9470 C   0  0  2  0  0  0  0  0  0  0  0  0
  -29.8890   11.8020   80.7900 C   0  0  1  0  0  0  0  0  0  0  0  0
  -27.7580   12.5310   80.5680 C   0  0  2  0  0  0  0  0  0  0  0  0
  -31.3270   12.2420   81.0730 C   0  0  1  0  0  0  0  0  0  0  0  0
  -24.6500   12.7550   80.8210 N   0  0  0  0  0  0  0  0  0  0  0  0
  -22.9350   14.3040   80.9210 N   0  0  0  0  0  0  0  0  0  0  0  0
  -26.2390   15.8050   80.6010 N   0  0  0  0  0  0  0  0  0  0  0  0
  -26.8890   13.7290   80.6060 N   0  0  0  0  0  0  0  0  0  0  0  0
  -23.3640   16.5810   80.8200 N   0  0  0  0  0  0  0  0  0  0  0  0
  -36.7950   13.4690   75.0540 O   0  5  0  0  0  0  0  0  0  0  0  0
  -34.2600   13.8810   75.1350 O   0  5  0  0  0  0  0  0  0  0  0  0
  -33.7140   14.2930   80.3000 O   0  5  0  0  0  0  0  0  0  0  0  0
  -33.1980   11.5530   76.3080 O   0  5  0  0  0  0  0  0  0  0  0  0
  -35.8180   15.1420   76.7510 O   0  0  0  0  0  0  0  0  0  0  0  0
  -31.3960   14.7840   79.2920 O   0  0  0  0  0  0  0  0  0  0  0  0
  -33.9990   11.2900   78.7410 O   0  0  0  0  0  0  0  0  0  0  0  0
  -29.1190   12.9340   80.3550 O   0  0  0  0  0  0  0  0  0  0  0  0
  -26.8870   10.7520   81.9540 O   0  0  0  0  0  0  0  0  0  0  0  0
  -32.0740   12.3650   79.8590 O   0  0  0  0  0  0  0  0  0  0  0  0
  -35.4170   12.6160   77.0490 O   0  0  0  0  0  0  0  0  0  0  0  0
  -33.1870   13.5800   77.8870 O   0  0  0  0  0  0  0  0  0  0  0  0
  -35.5880   13.8620   76.0440 P   0  0  0  0  0  0  0  0  0  0  0  0
  -32.5180   13.8200   79.3320 P   0  0  1  0  0  0  0  0  0  0  0  0
  -33.9530   12.1990   77.5740 P   0  0  2  0  0  0  0  0  0  0  0  0
  1 13  1  0  0  0  0
  2 14  1  0  0  0  0
  3 18  1  0  0  0  0
  4 18  1  0  0  0  0
  5 19  1  0  0  0  0
  6 20  1  0  0  0  0
  7 21  1  0  0  0  0
  8 22  1  0  0  0  0
  9 22  1  0  0  0  0
 10 27  1  0  0  0  0
 11 27  1  0  0  0  0
 12 36  1  0  0  0  0
 13 23  1  0  0  0  0
 13 24  2  0  0  0  0
 14 25  2  0  0  0  0
 14 26  1  0  0  0  0
 15 16  1  0  0  0  0
 15 17  2  0  0  0  0
 15 25  1  0  0  0  0
 16 23  2  0  0  0  0
 16 26  1  0  0  0  0
 17 24  1  0  0  0  0
 17 27  1  0  0  0  0
 18 19  1  0  0  0  0
 18 20  1  0  0  0  0
 19 21  1  0  0  0  0
 19 36  1  0  0  0  0
 20 22  1  0  0  0  0
 20 35  1  0  0  0  0
 21 26  1  0  0  0  0
 21 35  1  0  0  0  0
 22 37  1  0  0  0  0
 28 40  1  0  0  0  0
 29 40  1  0  0  0  0
 30 41  1  0  0  0  0
 31 42  1  0  0  0  0
 32 40  2  0  0  0  0
 33 41  2  0  0  0  0
 34 42  2  0  0  0  0
 37 41  1  0  0  0  0
 38 40  1  0  0  0  0
 38 42  1  0  0  0  0
 39 41  1  0  0  0  0
 39 42  1  0  0  0  0
M  CHG  4  28  -1  29  -1  31  -1  30  -1
M  END
> <scpdb_id>
3c23_1

$$$$
