2uxu_NAR_2_ligand
  -OEChem-08111718373D

 31 33  0     1  0  0  0  0  0999 V2000
   -0.0619   32.9448   15.5956 H   0  0  0  0  0  0  0  0  0  0  0  0
    3.7608   34.2318   13.8364 H   0  0  0  0  0  0  0  0  0  0  0  0
    1.0850   30.8156   15.8865 H   0  0  0  0  0  0  0  0  0  0  0  0
    4.6917   32.0652   14.2264 H   0  0  0  0  0  0  0  0  0  0  0  0
    2.4048   36.9902   11.1736 H   0  0  0  0  0  0  0  0  0  0  0  0
    0.1564   40.4018   11.8716 H   0  0  0  0  0  0  0  0  0  0  0  0
   -0.5636   34.8184   15.3437 H   0  0  0  0  0  0  0  0  0  0  0  0
    0.2324   36.0358   16.0858 H   0  0  0  0  0  0  0  0  0  0  0  0
    2.0423   35.8733   14.7229 H   0  0  0  0  0  0  0  0  0  0  0  0
    4.4455   29.9157   14.9769 H   0  0  0  0  0  0  0  0  0  0  0  0
    1.9168   40.3803   10.2431 H   0  0  0  0  0  0  0  0  0  0  0  0
    0.8850   32.7810   15.3190 C   0  0  0  0  0  0  0  0  0  0  0  0
    3.2020   33.5230   14.2670 C   0  0  0  0  0  0  0  0  0  0  0  0
    1.5860   31.5710   15.4640 C   0  0  0  0  0  0  0  0  0  0  0  0
    3.7470   32.2670   14.4850 C   0  0  0  0  0  0  0  0  0  0  0  0
    1.6750   37.4570   11.6730 C   0  0  0  0  0  0  0  0  0  0  0  0
    0.3620   39.4460   12.0820 C   0  0  0  0  0  0  0  0  0  0  0  0
   -0.0780   37.4240   13.3400 C   0  0  0  0  0  0  0  0  0  0  0  0
    1.8380   33.8290   14.6510 C   0  0  0  0  0  0  0  0  0  0  0  0
    0.9520   36.7770   12.6440 C   0  0  0  0  0  0  0  0  0  0  0  0
    2.9460   31.2970   15.0720 C   0  0  0  0  0  0  0  0  0  0  0  0
    1.3840   38.7830   11.3970 C   0  0  0  0  0  0  0  0  0  0  0  0
   -0.3750   38.7690   13.0650 C   0  0  0  0  0  0  0  0  0  0  0  0
   -0.7680   36.6840   14.2990 C   0  0  0  0  0  0  0  0  0  0  0  0
    0.0000   35.6320   15.2010 C   0  0  2  0  0  0  0  0  0  0  0  0
    1.3280   35.2550   14.3950 C   0  0  2  0  0  0  0  0  0  0  0  0
   -2.0700   36.8600   14.3920 O   0  0  0  0  0  0  0  0  0  0  0  0
    1.2400   35.4590   12.9080 O   0  0  0  0  0  0  0  0  0  0  0  0
    3.5000   30.0820   15.2570 O   0  0  0  0  0  0  0  0  0  0  0  0
    2.1100   39.4230   10.4580 O   0  0  0  0  0  0  0  0  0  0  0  0
   -1.3720   39.4200   13.7420 O   0  5  0  0  0  0  0  0  0  0  0  0
  1 12  1  0  0  0  0
  2 13  1  0  0  0  0
  3 14  1  0  0  0  0
  4 15  1  0  0  0  0
  5 16  1  0  0  0  0
  6 17  1  0  0  0  0
  7 25  1  0  0  0  0
  8 25  1  0  0  0  0
  9 26  1  0  0  0  0
 10 29  1  0  0  0  0
 11 30  1  0  0  0  0
 12 14  1  0  0  0  0
 12 19  2  0  0  0  0
 13 15  2  0  0  0  0
 13 19  1  0  0  0  0
 14 21  2  0  0  0  0
 15 21  1  0  0  0  0
 16 20  1  0  0  0  0
 16 22  2  0  0  0  0
 17 22  1  0  0  0  0
 17 23  2  0  0  0  0
 18 20  2  0  0  0  0
 18 23  1  0  0  0  0
 18 24  1  0  0  0  0
 19 26  1  0  0  0  0
 20 28  1  0  0  0  0
 21 29  1  0  0  0  0
 22 30  1  0  0  0  0
 23 31  1  0  0  0  0
 24 25  1  0  0  0  0
 24 27  2  0  0  0  0
 25 26  1  0  0  0  0
 26 28  1  0  0  0  0
M  CHG  1  31  -1
M  END
> <scpdb_id>
2uxu_2

$$$$
