#    Name: 22082
#    Modification time : Tue Aug  8 22:20:04 2017

@<TRIPOS>MOLECULE
22082
   58     0     9     0     0
SMALL
NO_CHARGES


@<TRIPOS>ATOM
      1 O          41.7740   39.5170   37.3820 O.2       1 ALL2        0.0000 
      2 O          47.9540   34.2350   43.1570 O.2       1 ALL2        0.0000 
      3 CA         44.2960   36.9810   38.3640 C.3       2 GLL5        0.0000 
      4 CA         42.6480   38.7650   38.1720 C.3       2 GLL5        0.0000 
      5 CA         42.7510   39.0440   39.5360 C.3       2 GLL5        0.0000 
      6 CA         45.7220   39.1000   46.0690 C.3       2 GLL5        0.0000 
      7 CA         43.7300   37.6970   46.3400 C.3       2 GLL5        0.0000 
      8 CA         43.6830   37.4990   44.9480 C.3       2 GLL5        0.0000 
      9 CA         43.6430   41.0130   42.1110 C.3       2 GLL5        0.0000 
     10 CA         45.4300   36.7430   42.0460 C.3       2 GLL5        0.0000 
     11 CA         47.0250   34.6640   40.9390 C.3       2 GLL5        0.0000 
     12 CA         46.1760   35.3820   40.1020 C.3       2 GLL5        0.0000 
     13 CA         45.6890   38.9130   44.6710 C.3       2 GLL5        0.0000 
     14 CA         44.7490   38.4940   46.9010 C.3       2 GLL5        0.0000 
     15 CA         46.3160   35.9770   42.8730 C.3       2 GLL5        0.0000 
     16 CZ         44.5325   37.5155   41.1982 C.ar      3 PHL6        0.0000 
     17 O          41.4680   37.6630   35.1990 O.2       4 ALP2        0.0000 
     18 O          39.9820   41.0320   39.7330 O.2       4 ALP2        0.0000 
     19 O          49.7300   32.3160   41.0820 O.2       4 ALP2        0.0000 
     20 CA         42.3430   33.2930   38.7450 C.3       5 GLP5        0.0000 
     21 CA         38.9230   37.0760   37.8250 C.3       5 GLP5        0.0000 
     22 CA         38.4350   38.5980   39.8060 C.3       5 GLP5        0.0000 
     23 CA         44.4940   41.0520   49.5810 C.3       5 GLP5        0.0000 
     24 CA         42.5130   35.5490   49.6630 C.3       5 GLP5        0.0000 
     25 CA         39.8690   38.6930   43.2920 C.3       5 GLP5        0.0000 
     26 CA         47.0030   41.4330   40.1900 C.3       5 GLP5        0.0000 
     27 CA         39.8940   41.0880   43.9610 C.3       5 GLP5        0.0000 
     28 CA         43.9300   42.2090   45.2490 C.3       5 GLP5        0.0000 
     29 CA         42.7710   34.5200   42.3200 C.3       5 GLP5        0.0000 
     30 CA         44.5360   42.2550   37.2120 C.3       5 GLP5        0.0000 
     31 CA         50.7920   35.0350   40.3160 C.3       5 GLP5        0.0000 
     32 CA         47.5430   33.6020   37.3230 C.3       5 GLP5        0.0000 
     33 CA         48.7470   40.5510   44.4390 C.3       5 GLP5        0.0000 
     34 CA         44.0740   39.7650   50.2950 C.3       5 GLP5        0.0000 
     35 CA         44.9180   33.8320   45.0870 C.3       5 GLP5        0.0000 
     36 CZ         41.8603   34.6410   41.2748 C.ar      6 PHP6        0.0000 
     37 O          41.6210   38.5900   36.2905 O.2       7 ALC2        0.0000 
     38 O          40.8780   40.2745   38.5575 O.2       7 ALC2        0.0000 
     39 O          48.8420   33.2755   42.1195 O.2       7 ALC2        0.0000 
     40 CA         43.3195   35.1370   38.5545 C.3       8 GLC5        0.0000 
     41 CA         40.7855   37.9205   37.9985 C.3       8 GLC5        0.0000 
     42 CA         40.5930   38.8210   39.6710 C.3       8 GLC5        0.0000 
     43 CA         45.1080   40.0760   47.8250 C.3       8 GLC5        0.0000 
     44 CA         43.1215   36.6230   48.0015 C.3       8 GLC5        0.0000 
     45 CA         41.7760   38.0960   44.1200 C.3       8 GLC5        0.0000 
     46 CA         45.3230   41.2230   41.1505 C.3       8 GLC5        0.0000 
     47 CA         41.7685   41.0505   43.0360 C.3       8 GLC5        0.0000 
     48 CA         43.7865   41.6110   43.6800 C.3       8 GLC5        0.0000 
     49 CA         44.1005   35.6315   42.1830 C.3       8 GLC5        0.0000 
     50 CA         43.6178   40.5798   38.0330 C.3       8 GLC5        0.0000 
     51 CA         48.9265   34.9235   40.9740 C.3       8 GLC5        0.0000 
     52 CA         47.0717   34.3125   38.9218 C.3       8 GLC5        0.0000 
     53 CA         47.2263   39.7788   44.9045 C.3       8 GLC5        0.0000 
     54 CA         44.1568   38.9303   48.4578 C.3       8 GLC5        0.0000 
     55 CA         44.4351   35.7911   45.2584 C.3       8 GLC5        0.0000 
     56 CA         45.6039   34.8731   43.8081 C.3       8 GLC5        0.0000 
     57 CZ         43.1964   36.0782   41.2365 C.ar      9 PHC6        0.0000 
     58 CZ         43.1964   36.0782   41.2365 C.ar      9 PHC6        0.0000 
@<TRIPOS>BOND
@<TRIPOS>SUBSTRUCTURE
     1 ALL2        1 GROUP        1 Z    ALL  0     ROOT ALL Z 1
     2 GLL5        3 GROUP        1 Z    GLL  0     **** GLL Z 4
     3 PHL6       16 GROUP        1 Z    PHL  0     **** PHL Z 6
     4 ALP2       17 GROUP        1 Z    ALP  0     **** ALP Z 8
     5 GLP5       20 GROUP        1 Z    GLP  0     **** GLP Z 11
     6 PHP6       36 GROUP        1 Z    PHP  0     **** PHP Z 13
     7 ALC2       37 GROUP        1 Z    ALC  0     **** ALC Z 15
     8 GLC5       40 GROUP        1 Z    GLC  0     **** GLC Z 18
     9 PHC6       57 GROUP        1 Z    PHC  0     **** PHC Z 20
@<TRIPOS>SET

