#    Name: 7605
#    Modification time : Tue Aug  8 23:07:30 2017

@<TRIPOS>MOLECULE
7605
   18     0     9     0     0
SMALL
NO_CHARGES


@<TRIPOS>ATOM
      1 N          56.5540    3.1310  -12.0250 N.am      1 SEL1        0.0000 
      2 N          56.0640    4.4990  -13.7400 N.am      1 SEL1        0.0000 
      3 N          57.8000    6.5980  -12.1500 N.am      1 SEL1        0.0000 
      4 O          58.7040    5.9430  -10.2190 O.2       2 ALL2        0.0000 
      5 CZ         58.1032    5.9246  -11.2240 C.ar      3 PHL6        0.0000 
      6 N          55.3990    1.0930  -14.4280 N.am      4 SEP1        0.0000 
      7 N          57.1640    7.3010  -14.7420 N.am      4 SEP1        0.0000 
      8 N          55.4920    2.7280  -16.0530 N.am      4 SEP1        0.0000 
      9 O          60.7460    6.8390   -8.0800 O.2       5 ALP2        0.0000 
     10 CZ         56.6238    7.5147   -8.2435 C.ar      6 PHP6        0.0000 
     11 CZ         60.1267    3.7728  -13.4232 C.ar      6 PHP6        0.0000 
     12 N          55.9765    2.1120  -13.2265 N.am      7 SEC1        0.0000 
     13 N          56.6140    5.9000  -14.2410 N.am      7 SEC1        0.0000 
     14 N          55.7780    3.6135  -14.8965 N.am      7 SEC1        0.0000 
     15 N          57.4820    6.9495  -13.4460 N.am      7 SEC1        0.0000 
     16 O          59.7250    6.3910   -9.1495 O.2       8 ALC2        0.0000 
     17 CZ         57.3635    6.7196   -9.7338 C.ar      9 PHC6        0.0000 
     18 CZ         59.1149    4.8487  -12.3236 C.ar      9 PHC6        0.0000 
@<TRIPOS>BOND
@<TRIPOS>SUBSTRUCTURE
     1 SEL1        1 GROUP        1 Z    SEL  0     ROOT SEL Z 0
     2 ALL2        4 GROUP        1 Z    ALL  0     **** ALL Z 1
     3 PHL6        5 GROUP        1 Z    PHL  0     **** PHL Z 6
     4 SEP1        6 GROUP        1 Z    SEP  0     **** SEP Z 7
     5 ALP2        9 GROUP        1 Z    ALP  0     **** ALP Z 8
     6 PHP6       10 GROUP        1 Z    PHP  0     **** PHP Z 13
     7 SEC1       12 GROUP        1 Z    SEC  0     **** SEC Z 14
     8 ALC2       16 GROUP        1 Z    ALC  0     **** ALC Z 15
     9 PHC6       17 GROUP        1 Z    PHC  0     **** PHC Z 20
@<TRIPOS>SET

