1qp0_HPA_1_ligand
  -OEChem-08111718373D

 14 15  0     0  0  0  0  0  0999 V2000
   58.9726    7.8475  -11.0566 H   0  0  0  0  0  0  0  0  0  0  0  0
   57.0727    1.8801  -10.5001 H   0  0  0  0  0  0  0  0  0  0  0  0
   59.2181    5.9904   -9.3626 H   0  0  0  0  0  0  0  0  0  0  0  0
   58.3445    3.4076   -9.2292 H   0  0  0  0  0  0  0  0  0  0  0  0
   58.5510    6.9450  -11.1450 C   0  0  0  0  0  0  0  0  0  0  0  0
   57.1810    2.8150  -10.8380 C   0  0  0  0  0  0  0  0  0  0  0  0
   57.4520    5.2750  -11.9010 C   0  0  0  0  0  0  0  0  0  0  0  0
   56.6640    4.3600  -12.6620 C   0  0  0  0  0  0  0  0  0  0  0  0
   58.0090    4.8620  -10.7050 C   0  0  0  0  0  0  0  0  0  0  0  0
   57.8000    6.5980  -12.1500 N   0  0  0  0  0  0  0  0  0  0  0  0
   56.5540    3.1310  -12.0250 N   0  0  0  0  0  0  0  0  0  0  0  0
   58.7040    5.9430  -10.2190 N   0  0  0  0  0  0  0  0  0  0  0  0
   57.9180    3.6450  -10.1020 N   0  0  0  0  0  0  0  0  0  0  0  0
   56.0640    4.4990  -13.7400 O   0  0  0  0  0  0  0  0  0  0  0  0
  1  5  1  0  0  0  0
  2  6  1  0  0  0  0
  3 12  1  0  0  0  0
  4 13  1  0  0  0  0
  5 10  2  0  0  0  0
  5 12  1  0  0  0  0
  6 11  2  0  0  0  0
  6 13  1  0  0  0  0
  7  8  1  0  0  0  0
  7  9  2  0  0  0  0
  7 10  1  0  0  0  0
  8 11  1  0  0  0  0
  8 14  2  0  0  0  0
  9 12  1  0  0  0  0
  9 13  1  0  0  0  0
M  END
> <scpdb_id>
1qp0_1

$$$$
