3gjw_GJW_1_ligand
  -OEChem-08111718373D

 38 41  0     1  0  0  0  0  0999 V2000
   52.4357   56.8446    9.6863 H   0  0  0  0  0  0  0  0  0  0  0  0
   48.3992   51.9349    6.7828 H   0  0  0  0  0  0  0  0  0  0  0  0
   50.7392   57.3575   11.5889 H   0  0  0  0  0  0  0  0  0  0  0  0
   50.0220   53.5231    7.5146 H   0  0  0  0  0  0  0  0  0  0  0  0
   45.9408   52.9569    9.9279 H   0  0  0  0  0  0  0  0  0  0  0  0
   51.4032   55.0100    8.2209 H   0  0  0  0  0  0  0  0  0  0  0  0
   44.4934   47.4434    7.9287 H   0  0  0  0  0  0  0  0  0  0  0  0
   44.4971   47.7739    9.5279 H   0  0  0  0  0  0  0  0  0  0  0  0
   46.6736   47.4905    9.5606 H   0  0  0  0  0  0  0  0  0  0  0  0
   46.6775   47.2270    7.9490 H   0  0  0  0  0  0  0  0  0  0  0  0
   44.3550   49.5929    7.3853 H   0  0  0  0  0  0  0  0  0  0  0  0
   43.8900   49.8246    8.9334 H   0  0  0  0  0  0  0  0  0  0  0  0
   47.7410   49.3833    9.1282 H   0  0  0  0  0  0  0  0  0  0  0  0
   47.4090   49.2791    7.5327 H   0  0  0  0  0  0  0  0  0  0  0  0
   46.2805   51.0918    6.8788 H   0  0  0  0  0  0  0  0  0  0  0  0
   45.1439   51.8302    7.7897 H   0  0  0  0  0  0  0  0  0  0  0  0
   46.6314   54.5875   11.5072 H   0  0  0  0  0  0  0  0  0  0  0  0
   51.5480   56.4050    9.8230 C   0  0  0  0  0  0  0  0  0  0  0  0
   48.2260   52.4890    7.5970 C   0  0  0  0  0  0  0  0  0  0  0  0
   50.6220   56.6830   10.8600 C   0  0  0  0  0  0  0  0  0  0  0  0
   49.1640   53.4030    8.0140 C   0  0  0  0  0  0  0  0  0  0  0  0
   46.7960   53.0780    9.4240 C   0  0  0  0  0  0  0  0  0  0  0  0
   50.9960   55.4160    9.0390 C   0  0  0  0  0  0  0  0  0  0  0  0
   47.0480   52.3320    8.2950 C   0  0  0  0  0  0  0  0  0  0  0  0
   48.8900   54.1470    9.1360 C   0  0  0  0  0  0  0  0  0  0  0  0
   49.5310   55.8580   10.6850 C   0  0  0  0  0  0  0  0  0  0  0  0
   47.7300   53.9910    9.8530 C   0  0  0  0  0  0  0  0  0  0  0  0
   48.3310   55.7430   11.4450 C   0  0  0  0  0  0  0  0  0  0  0  0
   44.8890   48.0220    8.6420 C   0  0  1  0  0  0  0  0  0  0  0  0
   46.3920   47.8550    8.6730 C   0  0  1  0  0  0  0  0  0  0  0  0
   44.6160   49.4720    8.3430 C   0  0  1  0  0  0  0  0  0  0  0  0
   47.0240   49.2100    8.4530 C   0  0  1  0  0  0  0  0  0  0  0  0
   46.0300   51.3670    7.8070 C   0  0  2  0  0  0  0  0  0  0  0  0
   47.4730   54.7590   10.9950 N   0  0  0  0  0  0  0  0  0  0  0  0
   49.7880   55.0940    9.5890 N   0  0  0  0  0  0  0  0  0  0  0  0
   45.8970   50.1520    8.6260 N   0  3  1  0  0  0  0  0  0  0  0  0
   48.0910   56.4390   12.4190 O   0  0  0  0  0  0  0  0  0  0  0  0
   45.8838   50.4333    9.5855 H   0  0  0  0  0  0  0  0  0  0  0  0
  1 18  1  0  0  0  0
  2 19  1  0  0  0  0
  3 20  1  0  0  0  0
  4 21  1  0  0  0  0
  5 22  1  0  0  0  0
  6 23  1  0  0  0  0
  7 29  1  0  0  0  0
  8 29  1  0  0  0  0
  9 30  1  0  0  0  0
 10 30  1  0  0  0  0
 11 31  1  0  0  0  0
 12 31  1  0  0  0  0
 13 32  1  0  0  0  0
 14 32  1  0  0  0  0
 15 33  1  0  0  0  0
 16 33  1  0  0  0  0
 17 34  1  0  0  0  0
 18 20  1  0  0  0  0
 18 23  2  0  0  0  0
 19 21  2  0  0  0  0
 19 24  1  0  0  0  0
 20 26  2  0  0  0  0
 21 25  1  0  0  0  0
 22 24  2  0  0  0  0
 22 27  1  0  0  0  0
 23 35  1  0  0  0  0
 24 33  1  0  0  0  0
 25 27  2  0  0  0  0
 25 35  1  0  0  0  0
 26 28  1  0  0  0  0
 26 35  1  0  0  0  0
 27 34  1  0  0  0  0
 28 34  1  0  0  0  0
 28 37  2  0  0  0  0
 29 30  1  0  0  0  0
 29 31  1  0  0  0  0
 30 32  1  0  0  0  0
 31 36  1  0  0  0  0
 32 36  1  0  0  0  0
 33 36  1  0  0  0  0
 36 38  1  0  0  0  0
M  CHG  1  36   1
M  END
> <scpdb_id>
3gjw_1

$$$$
