#    Name: 27454
#    Modification time : Tue Aug  8 23:56:22 2017

@<TRIPOS>MOLECULE
27454
   73     0     9     0     0
SMALL
NO_CHARGES


@<TRIPOS>ATOM
      1 N          -0.6910   18.9440  -23.4950 N.am      1 SEL1        0.0000 
      2 N           0.0790   15.7830  -20.5620 N.am      1 SEL1        0.0000 
      3 N           3.7350   15.1000  -23.7130 N.am      1 SEL1        0.0000 
      4 N           3.8700   12.5450  -22.9790 N.am      1 SEL1        0.0000 
      5 N           1.7460   13.7320  -23.1400 N.am      1 SEL1        0.0000 
      6 N          -1.2340   13.3010  -22.2660 N.am      1 SEL1        0.0000 
      7 O           3.8700   12.5450  -22.9790 O.2       2 ALL2        0.0000 
      8 O          -1.2340   13.3010  -22.2660 O.2       2 ALL2        0.0000 
      9 CA         -5.3320   23.7490  -22.0450 C.3       3 GLL5        0.0000 
     10 CA         -4.2110   24.0480  -23.1820 C.3       3 GLL5        0.0000 
     11 CA         -3.2160   22.9180  -23.5720 C.3       3 GLL5        0.0000 
     12 CA         -3.7650   22.1140  -24.7910 C.3       3 GLL5        0.0000 
     13 CA         -3.4670   22.9570  -26.0390 C.3       3 GLL5        0.0000 
     14 CA         -1.0120   15.5880  -21.5100 C.3       3 GLL5        0.0000 
     15 CA          1.2870   15.4530  -21.3300 C.3       3 GLL5        0.0000 
     16 CA          2.5310   15.1270  -20.4430 C.3       3 GLL5        0.0000 
     17 CA         -6.3230   24.8950  -21.6200 C.3       3 GLL5        0.0000 
     18 CA         -6.2210   26.3040  -22.2920 C.3       3 GLL5        0.0000 
     19 CA         -5.1020   26.6000  -23.4350 C.3       3 GLL5        0.0000 
     20 CA         -4.1100   25.4530  -23.8580 C.3       3 GLL5        0.0000 
     21 CA         -0.5460   14.4890  -22.5250 C.3       3 GLL5        0.0000 
     22 N           1.3349   20.7390  -24.0410 N.am      4 SEP1        0.0000 
     23 N           1.8420   18.3560  -19.4120 N.am      4 SEP1        0.0000 
     24 N           5.6330   16.9680  -22.8790 N.am      4 SEP1        0.0000 
     25 N           2.9400   17.6150  -23.7040 N.am      4 SEP1        0.0000 
     26 N           5.0390   10.2460  -21.2290 N.am      4 SEP1        0.0000 
     27 N           4.4590   11.5130  -25.9580 N.am      4 SEP1        0.0000 
     28 N           1.5190   11.3960  -25.6360 N.am      4 SEP1        0.0000 
     29 N           0.2930   11.1890  -20.8220 N.am      4 SEP1        0.0000 
     30 O           6.1900   11.8150  -23.9330 O.2       5 ALP2        0.0000 
     31 O          -2.1040   10.9150  -23.4200 O.2       5 ALP2        0.0000 
     32 O          -1.8680   12.4820  -24.9320 O.2       5 ALP2        0.0000 
     33 CA         -3.1070   22.1570  -19.6420 C.3       6 GLP5        0.0000 
     34 CA         -1.9000   24.3010  -20.0440 C.3       6 GLP5        0.0000 
     35 CA         -0.9530   22.1480  -20.8660 C.3       6 GLP5        0.0000 
     36 CA         -6.4000   22.1950  -28.4100 C.3       6 GLP5        0.0000 
     37 CA         -5.4570   23.2950  -28.8490 C.3       6 GLP5        0.0000 
     38 CA         -2.0580   24.4530  -29.5360 C.3       6 GLP5        0.0000 
     39 CA         -0.9640   18.1140  -18.5240 C.3       6 GLP5        0.0000 
     40 CA         -4.4180   13.5670  -19.5820 C.3       6 GLP5        0.0000 
     41 CA          3.9450   13.4790  -17.8600 C.3       6 GLP5        0.0000 
     42 CA          2.7260   19.4280  -19.6310 C.3       6 GLP5        0.0000 
     43 CA         -8.9350   25.5280  -23.9390 C.3       6 GLP5        0.0000 
     44 CA         -5.1050   29.8600  -22.5120 C.3       6 GLP5        0.0000 
     45 CA         -4.0740   27.3000  -27.7030 C.3       6 GLP5        0.0000 
     46 CA          0.8510   14.3040  -26.1750 C.3       6 GLP5        0.0000 
     47 N           0.3220   19.8415  -23.7680 N.am      7 SEC1        0.0000 
     48 N           0.9605   17.0695  -19.9870 N.am      7 SEC1        0.0000 
     49 N           4.6840   16.0340  -23.2960 N.am      7 SEC1        0.0000 
     50 N           3.3375   16.3575  -23.7085 N.am      7 SEC1        0.0000 
     51 N           4.4545   11.3955  -22.1040 N.am      7 SEC1        0.0000 
     52 N           4.1645   12.0290  -24.4685 N.am      7 SEC1        0.0000 
     53 N           1.6325   12.5640  -24.3880 N.am      7 SEC1        0.0000 
     54 N          -0.4705   12.2450  -21.5440 N.am      7 SEC1        0.0000 
     55 O           5.0300   12.1800  -23.4560 O.2       8 ALC2        0.0000 
     56 O          -1.6690   12.1080  -22.8430 O.2       8 ALC2        0.0000 
     57 O          -1.5510   12.8915  -23.5990 O.2       8 ALC2        0.0000 
     58 CA         -4.2195   22.9530  -20.8435 C.3       9 GLC5        0.0000 
     59 CA         -3.0555   24.1745  -21.6130 C.3       9 GLC5        0.0000 
     60 CA         -2.0845   22.5330  -22.2190 C.3       9 GLC5        0.0000 
     61 CA         -5.0825   22.1545  -26.6005 C.3       9 GLC5        0.0000 
     62 CA         -4.4620   23.1260  -27.4440 C.3       9 GLC5        0.0000 
     63 CA         -2.7625   23.7050  -27.7875 C.3       9 GLC5        0.0000 
     64 CA         -0.9880   16.8510  -20.0170 C.3       9 GLC5        0.0000 
     65 CA         -2.7150   14.5775  -20.5460 C.3       9 GLC5        0.0000 
     66 CA          0.1615   16.7835  -19.9270 C.3       9 GLC5        0.0000 
     67 CA          3.2380   14.3030  -19.1515 C.3       9 GLC5        0.0000 
     68 CA          2.6285   17.2775  -20.0370 C.3       9 GLC5        0.0000 
     69 CA         -7.3812   24.9250  -22.8858 C.3       9 GLC5        0.0000 
     70 CA         -7.2983   25.9900  -23.4012 C.3       9 GLC5        0.0000 
     71 CA         -5.3833   28.1560  -22.6878 C.3       9 GLC5        0.0000 
     72 CA         -4.3400   26.6633  -25.6747 C.3       9 GLC5        0.0000 
     73 CA          0.5050   14.3142  -24.2402 C.3       9 GLC5        0.0000 
@<TRIPOS>BOND
@<TRIPOS>SUBSTRUCTURE
     1 SEL1        1 GROUP        1 Z    SEL  0     ROOT SEL Z 0
     2 ALL2        7 GROUP        1 Z    ALL  0     **** ALL Z 1
     3 GLL5        9 GROUP        1 Z    GLL  0     **** GLL Z 4
     4 SEP1       22 GROUP        1 Z    SEP  0     **** SEP Z 7
     5 ALP2       30 GROUP        1 Z    ALP  0     **** ALP Z 8
     6 GLP5       33 GROUP        1 Z    GLP  0     **** GLP Z 11
     7 SEC1       47 GROUP        1 Z    SEC  0     **** SEC Z 14
     8 ALC2       55 GROUP        1 Z    ALC  0     **** ALC Z 15
     9 GLC5       58 GROUP        1 Z    GLC  0     **** GLC Z 18
@<TRIPOS>SET

