1knu_YPA_1_ligand
  -OEChem-08111718373D

 54 57  0     1  0  0  0  0  0999 V2000
   10.3659   64.0317    9.3960 H   0  0  0  0  0  0  0  0  0  0  0  0
   15.5344   69.1667    7.8542 H   0  0  0  0  0  0  0  0  0  0  0  0
   11.4560   62.1703   10.5023 H   0  0  0  0  0  0  0  0  0  0  0  0
   17.6666   68.3534    8.6756 H   0  0  0  0  0  0  0  0  0  0  0  0
   11.6654   65.9680    8.7158 H   0  0  0  0  0  0  0  0  0  0  0  0
   13.5198   67.8284    8.1274 H   0  0  0  0  0  0  0  0  0  0  0  0
   20.3481   62.0043   15.7743 H   0  0  0  0  0  0  0  0  0  0  0  0
   16.2125   62.2432   16.3851 H   0  0  0  0  0  0  0  0  0  0  0  0
   13.8448   62.2463   10.9328 H   0  0  0  0  0  0  0  0  0  0  0  0
   17.7832   66.1897    9.7874 H   0  0  0  0  0  0  0  0  0  0  0  0
   20.0002   61.8851   13.3977 H   0  0  0  0  0  0  0  0  0  0  0  0
   15.8598   62.1180   13.9951 H   0  0  0  0  0  0  0  0  0  0  0  0
   21.2227   67.1262   17.1005 H   0  0  0  0  0  0  0  0  0  0  0  0
   21.5562   65.7325   16.3176 H   0  0  0  0  0  0  0  0  0  0  0  0
   20.0264   66.3026   16.3540 H   0  0  0  0  0  0  0  0  0  0  0  0
   19.3728   61.6506   18.0436 H   0  0  0  0  0  0  0  0  0  0  0  0
   17.7739   61.8554   18.3047 H   0  0  0  0  0  0  0  0  0  0  0  0
   17.1074   64.3833   11.4828 H   0  0  0  0  0  0  0  0  0  0  0  0
   17.3866   63.6434   10.0541 H   0  0  0  0  0  0  0  0  0  0  0  0
   21.4690   65.3486   18.6685 H   0  0  0  0  0  0  0  0  0  0  0  0
   19.9392   65.9187   18.7049 H   0  0  0  0  0  0  0  0  0  0  0  0
   16.2218   61.7328   10.7984 H   0  0  0  0  0  0  0  0  0  0  0  0
   15.8903   62.4733   12.2156 H   0  0  0  0  0  0  0  0  0  0  0  0
   18.1313   64.2670   18.0238 H   0  0  0  0  0  0  0  0  0  0  0  0
   11.3500   64.0610    9.5710 C   0  0  0  0  0  0  0  0  0  0  0  0
   15.5850   68.2770    8.3080 C   0  0  0  0  0  0  0  0  0  0  0  0
   11.9900   62.9680   10.2220 C   0  0  0  0  0  0  0  0  0  0  0  0
   16.8410   67.8010    8.7910 C   0  0  0  0  0  0  0  0  0  0  0  0
   12.1110   65.1960    9.1690 C   0  0  0  0  0  0  0  0  0  0  0  0
   14.4000   67.4960    8.4660 C   0  0  0  0  0  0  0  0  0  0  0  0
   19.4160   62.0300   15.4130 C   0  0  0  0  0  0  0  0  0  0  0  0
   16.9990   62.1690   15.7720 C   0  0  0  0  0  0  0  0  0  0  0  0
   13.3940   63.0120   10.4740 C   0  0  0  0  0  0  0  0  0  0  0  0
   16.9110   66.5330    9.4390 C   0  0  0  0  0  0  0  0  0  0  0  0
   19.2100   61.9590   14.0060 C   0  0  0  0  0  0  0  0  0  0  0  0
   16.7910   62.0960   14.3590 C   0  0  0  0  0  0  0  0  0  0  0  0
   13.4960   65.2200    9.4160 C   0  0  0  0  0  0  0  0  0  0  0  0
   14.4990   66.2440    9.1110 C   0  0  0  0  0  0  0  0  0  0  0  0
   18.3190   62.1370   16.3160 C   0  0  0  0  0  0  0  0  0  0  0  0
   14.1610   64.1620   10.0660 C   0  0  0  0  0  0  0  0  0  0  0  0
   15.7200   65.7600    9.5840 C   0  0  0  0  0  0  0  0  0  0  0  0
   17.9080   61.9910   13.4520 C   0  0  0  0  0  0  0  0  0  0  0  0
   18.7990   63.7140   19.9670 C   0  0  0  0  0  0  0  0  0  0  0  0
   20.8780   66.2160   16.8710 C   0  0  0  0  0  0  0  0  0  0  0  0
   18.5770   62.2180   17.8320 C   0  0  2  0  0  0  0  0  0  0  0  0
   16.7230   63.7720   10.7910 C   0  0  1  0  0  0  0  0  0  0  0  0
   20.6170   65.4340   18.1520 C   0  0  1  0  0  0  0  0  0  0  0  0
   16.5560   62.3900   11.4740 C   0  0  2  0  0  0  0  0  0  0  0  0
   18.8510   63.6670   18.3730 C   0  0  2  0  0  0  0  0  0  0  0  0
   15.5370   64.5100   10.1770 N   0  0  0  0  0  0  0  0  0  0  0  0
   17.7960   63.6950   20.6260 O   0  5  0  0  0  0  0  0  0  0  0  0
   20.0200   63.7990   20.5510 O   0  0  0  0  0  0  0  0  0  0  0  0
   17.8010   61.9100   12.0160 O   0  0  0  0  0  0  0  0  0  0  0  0
   20.1230   64.1290   17.8300 O   0  0  0  0  0  0  0  0  0  0  0  0
  1 25  1  0  0  0  0
  2 26  1  0  0  0  0
  3 27  1  0  0  0  0
  4 28  1  0  0  0  0
  5 29  1  0  0  0  0
  6 30  1  0  0  0  0
  7 31  1  0  0  0  0
  8 32  1  0  0  0  0
  9 33  1  0  0  0  0
 10 34  1  0  0  0  0
 11 35  1  0  0  0  0
 12 36  1  0  0  0  0
 13 44  1  0  0  0  0
 14 44  1  0  0  0  0
 15 44  1  0  0  0  0
 16 45  1  0  0  0  0
 17 45  1  0  0  0  0
 18 46  1  0  0  0  0
 19 46  1  0  0  0  0
 20 47  1  0  0  0  0
 21 47  1  0  0  0  0
 22 48  1  0  0  0  0
 23 48  1  0  0  0  0
 24 49  1  0  0  0  0
 25 27  1  0  0  0  0
 25 29  2  0  0  0  0
 26 28  1  0  0  0  0
 26 30  2  0  0  0  0
 27 33  2  0  0  0  0
 28 34  2  0  0  0  0
 29 37  1  0  0  0  0
 30 38  1  0  0  0  0
 31 35  1  0  0  0  0
 31 39  2  0  0  0  0
 32 36  2  0  0  0  0
 32 39  1  0  0  0  0
 33 40  1  0  0  0  0
 34 41  1  0  0  0  0
 35 42  2  0  0  0  0
 36 42  1  0  0  0  0
 37 38  1  0  0  0  0
 37 40  2  0  0  0  0
 38 41  2  0  0  0  0
 39 45  1  0  0  0  0
 40 50  1  0  0  0  0
 41 50  1  0  0  0  0
 42 53  1  0  0  0  0
 43 49  1  0  0  0  0
 43 51  1  0  0  0  0
 43 52  2  0  0  0  0
 44 47  1  0  0  0  0
 45 49  1  0  0  0  0
 46 48  1  0  0  0  0
 46 50  1  0  0  0  0
 47 54  1  0  0  0  0
 48 53  1  0  0  0  0
 49 54  1  0  0  0  0
M  CHG  1  51  -1
M  END
> <scpdb_id>
1knu_1

$$$$
