#    Name: 10768
#    Modification time : Tue Aug  8 20:54:19 2017

@<TRIPOS>MOLECULE
10768
   35     0     3     0     0
SMALL
NO_CHARGES


@<TRIPOS>ATOM
      1 CA         23.7860   54.3490   26.2780 C.3       1 GLL5        0.0000 
      2 CA         22.6390   58.6510   29.2260 C.3       1 GLL5        0.0000 
      3 CA         21.1700   56.6690   31.3480 C.3       1 GLL5        0.0000 
      4 CA         22.4390   54.0830   28.4410 C.3       1 GLL5        0.0000 
      5 CA         24.8120   58.0770   32.3310 C.3       1 GLL5        0.0000 
      6 CA         29.9990   50.1730   30.4580 C.3       1 GLL5        0.0000 
      7 CA         22.5540   56.9120   28.9370 C.3       1 GLL5        0.0000 
      8 CA         25.6490   56.6850   31.6510 C.3       1 GLL5        0.0000 
      9 CA         21.3380   50.8400   26.8230 C.3       2 GLP5        0.0000 
     10 CA         27.6710   55.0090   25.3910 C.3       2 GLP5        0.0000 
     11 CA         24.5850   59.7720   25.7130 C.3       2 GLP5        0.0000 
     12 CA         24.4910   61.9790   29.0780 C.3       2 GLP5        0.0000 
     13 CA         19.2840   54.1360   34.4820 C.3       2 GLP5        0.0000 
     14 CA         18.0390   58.3650   31.4100 C.3       2 GLP5        0.0000 
     15 CA         25.0570   59.7260   35.3940 C.3       2 GLP5        0.0000 
     16 CA         25.2290   61.5090   30.1560 C.3       2 GLP5        0.0000 
     17 CA         33.4650   51.1820   30.9360 C.3       2 GLP5        0.0000 
     18 CA         30.5250   49.6120   33.7490 C.3       2 GLP5        0.0000 
     19 CA         30.0730   46.0970   31.4560 C.3       2 GLP5        0.0000 
     20 CA         20.2430   57.9430   26.4370 C.3       2 GLP5        0.0000 
     21 CA         28.8910   58.3080   31.8250 C.3       2 GLP5        0.0000 
     22 CA         22.5620   52.5945   26.5505 C.3       3 GLC5        0.0000 
     23 CA         25.7285   54.6790   25.8345 C.3       3 GLC5        0.0000 
     24 CA         23.6120   59.2115   27.4695 C.3       3 GLC5        0.0000 
     25 CA         23.5650   60.3150   29.1520 C.3       3 GLC5        0.0000 
     26 CA         20.2270   55.4025   32.9150 C.3       3 GLC5        0.0000 
     27 CA         19.6045   57.5170   31.3790 C.3       3 GLC5        0.0000 
     28 CA         21.8885   52.4615   27.6320 C.3       3 GLC5        0.0000 
     29 CA         24.9345   58.9015   33.8625 C.3       3 GLC5        0.0000 
     30 CA         25.0205   59.7930   31.2435 C.3       3 GLC5        0.0000 
     31 CA         31.7320   50.6775   30.6970 C.3       3 GLC5        0.0000 
     32 CA         30.2620   49.8925   32.1035 C.3       3 GLC5        0.0000 
     33 CA         30.0360   48.1350   30.9570 C.3       3 GLC5        0.0000 
     34 CA         21.4041   57.5112   27.6998 C.3       3 GLC5        0.0000 
     35 CA         27.2301   57.5634   31.7703 C.3       3 GLC5        0.0000 
@<TRIPOS>BOND
@<TRIPOS>SUBSTRUCTURE
     1 GLL5        1 GROUP        1 Z    GLL  0     ROOT GLL Z 4
     2 GLP5        9 GROUP        1 Z    GLP  0     **** GLP Z 11
     3 GLC5       22 GROUP        1 Z    GLC  0     **** GLC Z 18
@<TRIPOS>SET

