1xvp_CID_1_ligand
  -OEChem-08111718373D

 39 42  0     1  0  0  0  0  0999 V2000
   27.5193   54.0043   32.5475 H   0  0  0  0  0  0  0  0  0  0  0  0
   26.2744   55.1569   28.6861 H   0  0  0  0  0  0  0  0  0  0  0  0
   22.3952   53.0984   28.2720 H   0  0  0  0  0  0  0  0  0  0  0  0
   26.3208   55.8931   33.4980 H   0  0  0  0  0  0  0  0  0  0  0  0
   25.2492   57.1470   29.6234 H   0  0  0  0  0  0  0  0  0  0  0  0
   21.3668   54.0220   30.2648 H   0  0  0  0  0  0  0  0  0  0  0  0
   23.6013   56.9630   27.0926 H   0  0  0  0  0  0  0  0  0  0  0  0
   27.8610   49.6256   27.5969 H   0  0  0  0  0  0  0  0  0  0  0  0
   29.6936   48.3826   28.7337 H   0  0  0  0  0  0  0  0  0  0  0  0
   25.6832   51.3194   27.6494 H   0  0  0  0  0  0  0  0  0  0  0  0
   24.3767   55.0447   25.8693 H   0  0  0  0  0  0  0  0  0  0  0  0
   23.0836   54.0794   25.6193 H   0  0  0  0  0  0  0  0  0  0  0  0
   27.0020   54.6140   31.9470 C   0  0  0  0  0  0  0  0  0  0  0  0
   26.2940   55.3040   29.6750 C   0  0  0  0  0  0  0  0  0  0  0  0
   22.4390   54.0830   28.4410 C   0  0  0  0  0  0  0  0  0  0  0  0
   26.3230   55.7520   32.5080 C   0  0  0  0  0  0  0  0  0  0  0  0
   25.6710   56.4740   30.2310 C   0  0  0  0  0  0  0  0  0  0  0  0
   21.8340   54.6270   29.6200 C   0  0  0  0  0  0  0  0  0  0  0  0
   23.1520   56.3570   27.7490 C   0  0  0  0  0  0  0  0  0  0  0  0
   28.3500   49.9540   28.4050 C   0  0  0  0  0  0  0  0  0  0  0  0
   29.3540   49.2750   29.0310 C   0  0  0  0  0  0  0  0  0  0  0  0
   26.9480   54.3380   30.5270 C   0  0  0  0  0  0  0  0  0  0  0  0
   23.1100   54.9390   27.4960 C   0  0  0  0  0  0  0  0  0  0  0  0
   25.6490   56.6850   31.6510 C   0  0  0  0  0  0  0  0  0  0  0  0
   21.8960   56.0370   29.8790 C   0  0  0  0  0  0  0  0  0  0  0  0
   22.5540   56.9120   28.9370 C   0  0  0  0  0  0  0  0  0  0  0  0
   27.5170   53.0910   30.0490 C   0  0  0  0  0  0  0  0  0  0  0  0
   27.1880   52.1960   28.9520 C   0  0  0  0  0  0  0  0  0  0  0  0
   28.8530   51.3960   30.1410 C   0  0  0  0  0  0  0  0  0  0  0  0
   26.0520   52.1990   27.9500 C   0  0  0  0  0  0  0  0  0  0  0  0
   23.7860   54.3490   26.2780 C   0  0  2  0  0  0  0  0  0  0  0  0
   28.5170   52.5370   30.7810 N   0  0  0  0  0  0  0  0  0  0  0  0
   25.5470   53.2520   27.4750 N   0  0  0  0  0  0  0  0  0  0  0  0
   28.0960   51.1740   29.0470 N   0  0  0  0  0  0  0  0  0  0  0  0
   24.5780   53.2050   26.5990 O   0  0  0  0  0  0  0  0  0  0  0  0
   29.9990   50.1730   30.4580 S   0  0  0  0  0  0  0  0  0  0  0  0
   24.8120   58.0770   32.3310 Cl  0  0  0  0  0  0  0  0  0  0  0  0
   21.1700   56.6690   31.3480 Cl  0  0  0  0  0  0  0  0  0  0  0  0
   22.6390   58.6510   29.2260 Cl  0  0  0  0  0  0  0  0  0  0  0  0
  1 13  1  0  0  0  0
  2 14  1  0  0  0  0
  3 15  1  0  0  0  0
  4 16  1  0  0  0  0
  5 17  1  0  0  0  0
  6 18  1  0  0  0  0
  7 19  1  0  0  0  0
  8 20  1  0  0  0  0
  9 21  1  0  0  0  0
 10 30  1  0  0  0  0
 11 31  1  0  0  0  0
 12 31  1  0  0  0  0
 13 16  1  0  0  0  0
 13 22  2  0  0  0  0
 14 17  2  0  0  0  0
 14 22  1  0  0  0  0
 15 18  2  0  0  0  0
 15 23  1  0  0  0  0
 16 24  2  0  0  0  0
 17 24  1  0  0  0  0
 18 25  1  0  0  0  0
 19 23  2  0  0  0  0
 19 26  1  0  0  0  0
 20 21  2  0  0  0  0
 20 34  1  0  0  0  0
 21 36  1  0  0  0  0
 22 27  1  0  0  0  0
 23 31  1  0  0  0  0
 24 37  1  0  0  0  0
 25 26  2  0  0  0  0
 25 38  1  0  0  0  0
 26 39  1  0  0  0  0
 27 28  2  0  0  0  0
 27 32  1  0  0  0  0
 28 30  1  0  0  0  0
 28 34  1  0  0  0  0
 29 32  2  0  0  0  0
 29 34  1  0  0  0  0
 29 36  1  0  0  0  0
 30 33  2  0  0  0  0
 31 35  1  0  0  0  0
 33 35  1  0  0  0  0
M  END
> <scpdb_id>
1xvp_1

$$$$
