@<TRIPOS>MOLECULE
3d70_IMD_1_ligand
    9     9     1     0     0
SMALL
NO_CHARGES


@<TRIPOS>ATOM
     1 N1         -31.3490   102.1160   -48.2720 N.pl3        1 IMD302   0.0000
     2 C2         -30.0200   102.1200   -48.3680 C.2          1 IMD302   0.0000
     3 N3         -29.4860   101.0200   -47.7530 N.2          1 IMD302   0.0000
     4 C4         -30.5220   100.2900   -47.2460 C.2          1 IMD302   0.0000
     5 C5         -31.7260   100.9610   -47.5580 C.2          1 IMD302   0.0000
     6 H1         -31.9684   102.8090   -48.6408 H            1 IMD302   0.0000
     7 H2         -29.4856   102.8299   -48.8268 H            1 IMD302   0.0000
     8 H3         -30.4428    99.4301   -46.7416 H            1 IMD302   0.0000
     9 H4         -32.6544   100.6750   -47.3209 H            1 IMD302   0.0000
@<TRIPOS>BOND
     1    1    2       1
     2    1    5       1
     3    2    3       2
     4    3    4       1
     5    4    5       2
     6    1    6       1
     7    2    7       1
     8    4    8       1
     9    5    9       1
@<TRIPOS>SUBSTRUCTURE
     1 IMD302      1 GROUP             4 A     IMD     0 **** IMD A 302
