#    Name: 7680
#    Modification time : Tue Aug  8 23:04:59 2017

@<TRIPOS>MOLECULE
7680
   54     0    12     0     0
SMALL
NO_CHARGES


@<TRIPOS>ATOM
      1 N          -2.9340   25.4280   -4.7390 N.am      1 SEL1        0.0000 
      2 N          -6.3740   22.2560   -3.6800 N.am      1 SEL1        0.0000 
      3 N          -6.2000   23.8520   -1.9060 N.am      1 SEL1        0.0000 
      4 N          -4.4250   22.0950   -2.1360 N.am      1 SEL1        0.0000 
      5 N          -3.0770   21.4060   -0.1200 N.am      1 SEL1        0.0000 
      6 N          -2.0030   21.7380   -2.2740 N.am      1 SEL1        0.0000 
      7 N          -8.9080   26.2350   -9.4590 N.am      1 SEL1        0.0000 
      8 NZ         -2.9340   25.4280   -4.7390 N.4       2 LYL3        0.0000 
      9 NZ         -2.6860   23.6380   -1.1640 N.4       2 LYL3        0.0000 
     10 NZ         -2.0030   21.7380   -2.2740 N.4       2 LYL3        0.0000 
     11 CA         -6.4980   26.6970   -3.6770 C.3       3 GLL5        0.0000 
     12 CA         -7.7530   26.4340   -4.4870 C.3       3 GLL5        0.0000 
     13 CA         -8.2990   26.3780   -6.7750 C.3       3 GLL5        0.0000 
     14 CA         -8.8560   25.1200   -6.1230 C.3       3 GLL5        0.0000 
     15 CA         -7.9620   24.9850   -4.8970 C.3       3 GLL5        0.0000 
     16 Zn         -3.9510   25.5210   -2.4070 Zn        4 ZIL7        0.0000 
     17 Zn         -6.2000   23.8520   -1.9060 Zn        4 ZIL7        0.0000 
     18 Zn         -2.6860   23.6380   -1.1640 Zn        4 ZIL7        0.0000 
     19 N          -1.3400   23.0830   -4.3890 N.am      5 SEP1        0.0000 
     20 N          -5.4120   19.1310   -4.6680 N.am      5 SEP1        0.0000 
     21 N          -8.5150   21.9830   -0.6460 N.am      5 SEP1        0.0000 
     22 N          -6.4000   20.3460   -0.2340 N.am      5 SEP1        0.0000 
     23 N          -0.4780   18.9620   -2.4250 N.am      5 SEP1        0.0000 
     24 N         -11.3200   27.5080   -8.7510 N.am      5 SEP1        0.0000 
     25 NZ         -1.3400   23.0830   -4.3890 N.4       6 LYP3        0.0000 
     26 CA         -7.2540   27.9910    0.0990 C.3       7 GLP5        0.0000 
     27 CA        -12.0470   25.1700   -4.4460 C.3       7 GLP5        0.0000 
     28 CA         -7.1230   22.4540   -8.1540 C.3       7 GLP5        0.0000 
     29 CA         -8.8800   24.8510   -1.5220 C.3       7 GLP5        0.0000 
     30 CA        -11.6510   23.7080   -4.6850 C.3       7 GLP5        0.0000 
     31 CA         -7.1110   22.2100   -6.7680 C.3       7 GLP5        0.0000 
     32 Zn         -4.6200   24.4040   -0.4040 Zn        8 ZIP7        0.0000 
     33 Zn         -2.8930   27.5280   -1.5280 Zn        8 ZIP7        0.0000 
     34 N          -2.1370   24.2555   -4.5640 N.am      9 SEC1        0.0000 
     35 N          -5.8930   20.6935   -4.1740 N.am      9 SEC1        0.0000 
     36 N          -7.3575   22.9175   -1.2760 N.am      9 SEC1        0.0000 
     37 N          -5.4125   21.2205   -1.1850 N.am      9 SEC1        0.0000 
     38 N          -4.7385   20.8760   -0.1770 N.am      9 SEC1        0.0000 
     39 N          -1.2405   20.3500   -2.3495 N.am      9 SEC1        0.0000 
     40 N          -1.6715   22.4105   -3.3315 N.am      9 SEC1        0.0000 
     41 N         -10.1140   26.8715   -9.1050 N.am      9 SEC1        0.0000 
     42 NZ         -2.1370   24.2555   -4.5640 N.4      10 LYC3        0.0000 
     43 NZ         -2.0130   23.3605   -2.7765 N.4      10 LYC3        0.0000 
     44 NZ         -1.6715   22.4105   -3.3315 N.4      10 LYC3        0.0000 
     45 CA         -6.8760   27.3440   -1.7890 C.3      11 GLC5        0.0000 
     46 CA         -9.9000   25.8020   -4.4665 C.3      11 GLC5        0.0000 
     47 CA         -7.7110   24.4160   -7.4645 C.3      11 GLC5        0.0000 
     48 CA         -8.2119   25.3131   -3.0057 C.3      11 GLC5        0.0000 
     49 CA        -10.0300   24.3803   -5.0975 C.3      11 GLC5        0.0000 
     50 CA         -7.7600   23.6313   -6.1390 C.3      11 GLC5        0.0000 
     51 Zn         -4.2855   24.9625   -1.4055 Zn       12 ZIC7        0.0000 
     52 Zn         -3.4220   26.5245   -1.9675 Zn       12 ZIC7        0.0000 
     53 Zn         -5.4100   24.1280   -1.1550 Zn       12 ZIC7        0.0000 
     54 Zn         -3.6530   24.0210   -0.7840 Zn       12 ZIC7        0.0000 
@<TRIPOS>BOND
@<TRIPOS>SUBSTRUCTURE
     1 SEL1        1 GROUP        1 Z    SEL  0     ROOT SEL Z 0
     2 LYL3        8 GROUP        1 Z    LYL  0     **** LYL Z 2
     3 GLL5       11 GROUP        1 Z    GLL  0     **** GLL Z 4
     4 ZIL7       16 GROUP        1 Z    ZIL  0     **** ZIL Z 5
     5 SEP1       19 GROUP        1 Z    SEP  0     **** SEP Z 7
     6 LYP3       25 GROUP        1 Z    LYP  0     **** LYP Z 9
     7 GLP5       26 GROUP        1 Z    GLP  0     **** GLP Z 11
     8 ZIP7       32 GROUP        1 Z    ZIP  0     **** ZIP Z 12
     9 SEC1       34 GROUP        1 Z    SEC  0     **** SEC Z 14
    10 LYC3       42 GROUP        1 Z    LYC  0     **** LYC Z 16
    11 GLC5       45 GROUP        1 Z    GLC  0     **** GLC Z 18
    12 ZIC7       51 GROUP        1 Z    ZIC  0     **** ZIC Z 19
@<TRIPOS>SET

