2j14_GNI_1_ligand
  -OEChem-08111718373D

 54 57  0     1  0  0  0  0  0999 V2000
    0.9217   -5.0546   -3.6404 H   0  0  0  0  0  0  0  0  0  0  0  0
   -1.0398   -6.0888   -4.5411 H   0  0  0  0  0  0  0  0  0  0  0  0
    0.9454   -4.3058   -1.3704 H   0  0  0  0  0  0  0  0  0  0  0  0
   -7.7310   -8.6865    3.1971 H   0  0  0  0  0  0  0  0  0  0  0  0
   -2.9777   -6.3655   -3.1667 H   0  0  0  0  0  0  0  0  0  0  0  0
   -0.9920   -4.5888    0.0030 H   0  0  0  0  0  0  0  0  0  0  0  0
   -6.8292   -7.7234    1.2059 H   0  0  0  0  0  0  0  0  0  0  0  0
   -6.6297   -8.3426    5.2947 H   0  0  0  0  0  0  0  0  0  0  0  0
    1.0428  -11.6669    1.3091 H   0  0  0  0  0  0  0  0  0  0  0  0
    0.8668  -14.0346    1.0473 H   0  0  0  0  0  0  0  0  0  0  0  0
   -3.7283   -6.0770    3.3956 H   0  0  0  0  0  0  0  0  0  0  0  0
   -2.0331  -13.4887   -1.8595 H   0  0  0  0  0  0  0  0  0  0  0  0
   -3.3884   -6.9656    5.7008 H   0  0  0  0  0  0  0  0  0  0  0  0
   -4.6043   -7.7453    6.4626 H   0  0  0  0  0  0  0  0  0  0  0  0
    0.1479   -7.4798    2.1947 H   0  0  0  0  0  0  0  0  0  0  0  0
    0.8361   -7.5460    0.7153 H   0  0  0  0  0  0  0  0  0  0  0  0
   -0.8032   -9.6336    1.8736 H   0  0  0  0  0  0  0  0  0  0  0  0
    0.8111   -9.7316    1.6479 H   0  0  0  0  0  0  0  0  0  0  0  0
   -1.2877   -7.3197   -0.3278 H   0  0  0  0  0  0  0  0  0  0  0  0
    0.1110   -5.1730   -3.0670 C   0  0  0  0  0  0  0  0  0  0  0  0
   -1.0300   -5.7740   -3.5920 C   0  0  0  0  0  0  0  0  0  0  0  0
    0.1250   -4.7370   -1.7460 C   0  0  0  0  0  0  0  0  0  0  0  0
   -6.8940   -8.1410    3.2400 C   0  0  0  0  0  0  0  0  0  0  0  0
   -2.1570   -5.9350   -2.7910 C   0  0  0  0  0  0  0  0  0  0  0  0
   -1.0030   -4.9010   -0.9470 C   0  0  0  0  0  0  0  0  0  0  0  0
   -6.3670   -7.5800    2.0810 C   0  0  0  0  0  0  0  0  0  0  0  0
   -6.2530   -7.9410    4.4600 C   0  0  0  0  0  0  0  0  0  0  0  0
    0.3990  -12.0470    0.6450 C   0  0  0  0  0  0  0  0  0  0  0  0
    0.2970  -13.4270    0.4940 C   0  0  0  0  0  0  0  0  0  0  0  0
   -4.5650   -6.6230    3.3530 C   0  0  0  0  0  0  0  0  0  0  0  0
   -1.3890  -13.1080   -1.1960 C   0  0  0  0  0  0  0  0  0  0  0  0
   -2.1460   -5.4990   -1.4690 C   0  0  0  0  0  0  0  0  0  0  0  0
   -5.2020   -6.8210    2.1300 C   0  0  0  0  0  0  0  0  0  0  0  0
   -3.3560   -6.2460    0.5780 C   0  0  0  0  0  0  0  0  0  0  0  0
   -5.0880   -7.1820    4.5170 C   0  0  0  0  0  0  0  0  0  0  0  0
   -0.3890  -11.1910   -0.1220 C   0  0  0  0  0  0  0  0  0  0  0  0
   -0.5990  -13.9600   -0.4280 C   0  0  0  0  0  0  0  0  0  0  0  0
   -1.2850  -11.7280   -1.0430 C   0  0  0  0  0  0  0  0  0  0  0  0
   -4.6980   -6.2970    0.9430 C   0  0  0  0  0  0  0  0  0  0  0  0
   -3.2820   -5.6700   -0.6840 C   0  0  0  0  0  0  0  0  0  0  0  0
   -2.1600   -6.7480    1.3910 C   0  0  0  0  0  0  0  0  0  0  0  0
   -4.7970   -5.6720    6.5270 C   0  0  0  0  0  0  0  0  0  0  0  0
   -4.3760   -6.9830    5.8570 C   0  0  2  0  0  0  0  0  0  0  0  0
    0.0470   -7.8260    1.2620 C   0  0  1  0  0  0  0  0  0  0  0  0
   -0.0420   -9.3530    1.2890 C   0  0  2  0  0  0  0  0  0  0  0  0
   -5.4150   -5.7760   -0.0510 N   0  0  0  0  0  0  0  0  0  0  0  0
   -1.1820   -7.2840    0.6660 N   0  0  0  0  0  0  0  0  0  0  0  0
   -5.9140   -5.1990    6.2240 O   0  5  0  0  0  0  0  0  0  0  0  0
   -2.1180   -6.6150    2.6130 O   0  0  0  0  0  0  0  0  0  0  0  0
   -3.9900   -5.1720    7.3390 O   0  0  0  0  0  0  0  0  0  0  0  0
   -4.5500   -5.3740   -1.0920 O   0  0  0  0  0  0  0  0  0  0  0  0
   -0.2580   -9.8360   -0.0460 O   0  0  0  0  0  0  0  0  0  0  0  0
   -0.7290  -15.6740   -0.6210 Cl  0  0  0  0  0  0  0  0  0  0  0  0
   -2.2800  -10.6790   -1.9920 Cl  0  0  0  0  0  0  0  0  0  0  0  0
  1 20  1  0  0  0  0
  2 21  1  0  0  0  0
  3 22  1  0  0  0  0
  4 23  1  0  0  0  0
  5 24  1  0  0  0  0
  6 25  1  0  0  0  0
  7 26  1  0  0  0  0
  8 27  1  0  0  0  0
  9 28  1  0  0  0  0
 10 29  1  0  0  0  0
 11 30  1  0  0  0  0
 12 31  1  0  0  0  0
 13 43  1  0  0  0  0
 14 43  1  0  0  0  0
 15 44  1  0  0  0  0
 16 44  1  0  0  0  0
 17 45  1  0  0  0  0
 18 45  1  0  0  0  0
 19 47  1  0  0  0  0
 20 21  2  0  0  0  0
 20 22  1  0  0  0  0
 21 24  1  0  0  0  0
 22 25  2  0  0  0  0
 23 26  1  0  0  0  0
 23 27  2  0  0  0  0
 24 32  2  0  0  0  0
 25 32  1  0  0  0  0
 26 33  2  0  0  0  0
 27 35  1  0  0  0  0
 28 29  2  0  0  0  0
 28 36  1  0  0  0  0
 29 37  1  0  0  0  0
 30 33  1  0  0  0  0
 30 35  2  0  0  0  0
 31 37  2  0  0  0  0
 31 38  1  0  0  0  0
 32 40  1  0  0  0  0
 33 39  1  0  0  0  0
 34 39  1  0  0  0  0
 34 40  2  0  0  0  0
 34 41  1  0  0  0  0
 35 43  1  0  0  0  0
 36 38  2  0  0  0  0
 36 52  1  0  0  0  0
 37 53  1  0  0  0  0
 38 54  1  0  0  0  0
 39 46  2  0  0  0  0
 40 51  1  0  0  0  0
 41 47  1  0  0  0  0
 41 49  2  0  0  0  0
 42 43  1  0  0  0  0
 42 48  1  0  0  0  0
 42 50  2  0  0  0  0
 44 45  1  0  0  0  0
 44 47  1  0  0  0  0
 45 52  1  0  0  0  0
 46 51  1  0  0  0  0
M  CHG  1  48  -1
M  END
> <scpdb_id>
2j14_1

$$$$
