@<TRIPOS>MOLECULE
2j14_GNI_1_ligand
   54    57     1     0     0
SMALL
NO_CHARGES


@<TRIPOS>ATOM
     1 O11         -2.1180    -6.6150     2.6130 O.2          1 GNI1440   0.0000
     2 C10         -2.1600    -6.7480     1.3910 C.2          1 GNI1440   0.0000
     3 N20         -5.4150    -5.7760    -0.0510 N.2          1 GNI1440   0.0000
     4 C21         -4.6980    -6.2970     0.9430 C.2          1 GNI1440   0.0000
     5 C28         -0.5990   -13.9600    -0.4280 C.ar         1 GNI1440   0.0000
     6 C27         -1.3890   -13.1080    -1.1960 C.ar         1 GNI1440   0.0000
     7 C26         -1.2850   -11.7280    -1.0430 C.ar         1 GNI1440   0.0000
     8 C25         -0.3890   -11.1910    -0.1220 C.ar         1 GNI1440   0.0000
     9 C24          0.3990   -12.0470     0.6450 C.ar         1 GNI1440   0.0000
    10 C23          0.2970   -13.4270     0.4940 C.ar         1 GNI1440   0.0000
    11 C13         -3.2820    -5.6700    -0.6840 C.2          1 GNI1440   0.0000
    12 C14         -2.1460    -5.4990    -1.4690 C.ar         1 GNI1440   0.0000
    13 C19         -2.1570    -5.9350    -2.7910 C.ar         1 GNI1440   0.0000
    14 C18         -1.0300    -5.7740    -3.5920 C.ar         1 GNI1440   0.0000
    15 C17          0.1110    -5.1730    -3.0670 C.ar         1 GNI1440   0.0000
    16 C16          0.1250    -4.7370    -1.7460 C.ar         1 GNI1440   0.0000
    17 C15         -1.0030    -4.9010    -0.9470 C.ar         1 GNI1440   0.0000
    18 N9          -1.1820    -7.2840     0.6660 N.am         1 GNI1440   0.0000
    19 C8           0.0470    -7.8260     1.2620 C.3          1 GNI1440   0.0000
    20 C7          -0.0420    -9.3530     1.2890 C.3          1 GNI1440   0.0000
    21 C5          -6.2530    -7.9410     4.4600 C.ar         1 GNI1440   0.0000
    22 C4          -6.8940    -8.1410     3.2400 C.ar         1 GNI1440   0.0000
    23 C3          -6.3670    -7.5800     2.0810 C.ar         1 GNI1440   0.0000
    24 C30         -5.0880    -7.1820     4.5170 C.ar         1 GNI1440   0.0000
    25 C31         -4.5650    -6.6230     3.3530 C.ar         1 GNI1440   0.0000
    26 O           -3.9900    -5.1720     7.3390 O.co2        1 GNI1440   0.0000
    27 C           -4.7970    -5.6720     6.5270 C.2          1 GNI1440   0.0000
    28 O3          -5.9140    -5.1990     6.2240 O.co2        1 GNI1440  -1.0000
    29 C2          -4.3760    -6.9830     5.8570 C.3          1 GNI1440   0.0000
    30 C9          -5.2020    -6.8210     2.1300 C.ar         1 GNI1440   0.0000
    31 O13         -4.5500    -5.3740    -1.0920 O.2          1 GNI1440   0.0000
    32 C12         -3.3560    -6.2460     0.5780 C.2          1 GNI1440   0.0000
    33 O21         -0.2580    -9.8360    -0.0460 O.3          1 GNI1440   0.0000
    34 CL26        -0.7290   -15.6740    -0.6210 Cl           1 GNI1440   0.0000
    35 CL29        -2.2800   -10.6790    -1.9920 Cl           1 GNI1440   0.0000
    36 H1          -2.0331   -13.4887    -1.8595 H            1 GNI1440   0.0000
    37 H2           1.0428   -11.6669     1.3091 H            1 GNI1440   0.0000
    38 H3           0.8668   -14.0346     1.0473 H            1 GNI1440   0.0000
    39 H4          -2.9777    -6.3655    -3.1667 H            1 GNI1440   0.0000
    40 H5          -1.0398    -6.0888    -4.5411 H            1 GNI1440   0.0000
    41 H6           0.9217    -5.0546    -3.6404 H            1 GNI1440   0.0000
    42 H7           0.9454    -4.3058    -1.3704 H            1 GNI1440   0.0000
    43 H8          -0.9920    -4.5888     0.0030 H            1 GNI1440   0.0000
    44 H9          -1.2877    -7.3197    -0.3278 H            1 GNI1440   0.0000
    45 H10          0.1479    -7.4798     2.1947 H            1 GNI1440   0.0000
    46 H11          0.8361    -7.5460     0.7153 H            1 GNI1440   0.0000
    47 H12         -0.8032    -9.6336     1.8736 H            1 GNI1440   0.0000
    48 H13          0.8111    -9.7316     1.6479 H            1 GNI1440   0.0000
    49 H14         -6.6297    -8.3426     5.2947 H            1 GNI1440   0.0000
    50 H15         -7.7310    -8.6865     3.1971 H            1 GNI1440   0.0000
    51 H16         -6.8292    -7.7234     1.2059 H            1 GNI1440   0.0000
    52 H17         -3.7283    -6.0770     3.3956 H            1 GNI1440   0.0000
    53 H18         -3.3884    -6.9656     5.7008 H            1 GNI1440   0.0000
    54 H19         -4.6043    -7.7453     6.4626 H            1 GNI1440   0.0000
@<TRIPOS>BOND
     1    1    2       2
     2    2   18      am
     3    2   32       1
     4    3    4       2
     5    3   31       1
     6    4   30       1
     7    4   32       1
     8    5    6      ar
     9    5   10      ar
    10    5   34       1
    11    6    7      ar
    12    7    8      ar
    13    7   35       1
    14    8    9      ar
    15    8   33       1
    16    9   10      ar
    17   11   12       1
    18   11   31       1
    19   11   32       2
    20   12   13      ar
    21   12   17      ar
    22   13   14      ar
    23   14   15      ar
    24   15   16      ar
    25   16   17      ar
    26   18   19       1
    27   19   20       1
    28   20   33       1
    29   21   22      ar
    30   21   24      ar
    31   22   23      ar
    32   23   30      ar
    33   24   25      ar
    34   24   29       1
    35   25   30      ar
    36   26   27      ar
    37   27   28      ar
    38   27   29       1
    39    6   36       1
    40    9   37       1
    41   10   38       1
    42   13   39       1
    43   14   40       1
    44   15   41       1
    45   16   42       1
    46   17   43       1
    47   18   44       1
    48   19   45       1
    49   19   46       1
    50   20   47       1
    51   20   48       1
    52   21   49       1
    53   22   50       1
    54   23   51       1
    55   25   52       1
    56   29   54       1
    57   29   53       1
@<TRIPOS>SUBSTRUCTURE
     1 GNI1440     1 GROUP             4 A     GNI     0 **** GNI A1440
