#    Name: 29223
#    Modification time : Tue Aug  8 23:11:17 2017

@<TRIPOS>MOLECULE
29223
   32     0     9     0     0
SMALL
NO_CHARGES


@<TRIPOS>ATOM
      1 N         -26.2050   67.7030   22.4160 N.am      1 SEL1        0.0000 
      2 O         -22.6640   62.1060   29.4770 O.2       2 ALL2        0.0000 
      3 O         -24.3290   66.8950   23.4850 O.2       2 ALL2        0.0000 
      4 CA        -23.3550   62.4670   27.2140 C.3       3 GLL5        0.0000 
      5 CA        -24.2770   63.8380   29.0150 C.3       3 GLL5        0.0000 
      6 CA        -26.5120   66.0220   23.9800 C.3       3 GLL5        0.0000 
      7 CA        -28.7080   65.1120   24.2910 C.3       3 GLL5        0.0000 
      8 CA        -28.2640   64.3350   25.3420 C.3       3 GLL5        0.0000 
      9 CA        -26.0720   65.2250   25.0190 C.3       3 GLL5        0.0000 
     10 N         -28.5490   68.8800   21.1510 N.am      4 SEP1        0.0000 
     11 N         -24.9870   69.9030   20.8270 N.am      4 SEP1        0.0000 
     12 O         -24.6290   60.3390   31.5230 O.2       5 ALP2        0.0000 
     13 O         -23.0430   69.5100   22.6630 O.2       5 ALP2        0.0000 
     14 CA        -24.7020   60.1390   24.1010 C.3       6 GLP5        0.0000 
     15 CA        -25.4380   67.7530   28.2210 C.3       6 GLP5        0.0000 
     16 CA        -27.1360   68.0240   26.5600 C.3       6 GLP5        0.0000 
     17 CA        -31.5790   66.9680   21.5780 C.3       6 GLP5        0.0000 
     18 CA        -31.4160   67.6780   25.2510 C.3       6 GLP5        0.0000 
     19 CA        -30.8250   61.8030   25.0140 C.3       6 GLP5        0.0000 
     20 CA        -26.1090   62.0590   23.2790 C.3       6 GLP5        0.0000 
     21 N         -27.3770   68.2915   21.7835 N.am      7 SEC1        0.0000 
     22 N         -25.5960   68.8030   21.6215 N.am      7 SEC1        0.0000 
     23 O         -23.6465   61.2225   30.5000 O.2       8 ALC2        0.0000 
     24 O         -23.6860   68.2025   23.0740 O.2       8 ALC2        0.0000 
     25 CA        -24.0285   61.3030   25.6575 C.3       9 GLC5        0.0000 
     26 CA        -24.8575   65.7955   28.6180 C.3       9 GLC5        0.0000 
     27 CA        -26.8240   67.0230   25.2700 C.3       9 GLC5        0.0000 
     28 CA        -29.9267   66.2507   22.7670 C.3       9 GLC5        0.0000 
     29 CA        -29.8453   66.6058   24.6035 C.3       9 GLC5        0.0000 
     30 CA        -29.6555   63.2632   24.9153 C.3       9 GLC5        0.0000 
     31 CA        -27.2446   63.5938   23.8326 C.3       9 GLC5        0.0000 
     32 CA        -26.2533   63.6385   24.1028 C.3       9 GLC5        0.0000 
@<TRIPOS>BOND
@<TRIPOS>SUBSTRUCTURE
     1 SEL1        1 GROUP        1 Z    SEL  0     ROOT SEL Z 0
     2 ALL2        2 GROUP        1 Z    ALL  0     **** ALL Z 1
     3 GLL5        4 GROUP        1 Z    GLL  0     **** GLL Z 4
     4 SEP1       10 GROUP        1 Z    SEP  0     **** SEP Z 7
     5 ALP2       12 GROUP        1 Z    ALP  0     **** ALP Z 8
     6 GLP5       14 GROUP        1 Z    GLP  0     **** GLP Z 11
     7 SEC1       21 GROUP        1 Z    SEC  0     **** SEC Z 14
     8 ALC2       23 GROUP        1 Z    ALC  0     **** ALC Z 15
     9 GLC5       25 GROUP        1 Z    GLC  0     **** GLC Z 18
@<TRIPOS>SET

