3frq_ERY_1_ligand
  -OEChem-08111718373D

119121  0     1  0  0  0  0  0999 V2000
   10.0659    9.1524   21.3139 H   0  0  0  0  0  0  0  0  0  0  0  0
   11.1856    9.5214   22.4438 H   0  0  0  0  0  0  0  0  0  0  0  0
   15.7742    9.8981   23.8853 H   0  0  0  0  0  0  0  0  0  0  0  0
   16.1767    9.0517   25.2225 H   0  0  0  0  0  0  0  0  0  0  0  0
   11.7173    1.4726   20.0252 H   0  0  0  0  0  0  0  0  0  0  0  0
   11.8469    0.8780   21.5406 H   0  0  0  0  0  0  0  0  0  0  0  0
    9.4054    9.7858   24.0236 H   0  0  0  0  0  0  0  0  0  0  0  0
    7.9431   10.0170   20.6930 H   0  0  0  0  0  0  0  0  0  0  0  0
    9.8435    5.0649   18.7422 H   0  0  0  0  0  0  0  0  0  0  0  0
   10.1715    6.9839   20.3374 H   0  0  0  0  0  0  0  0  0  0  0  0
   15.7191    7.0202   24.0817 H   0  0  0  0  0  0  0  0  0  0  0  0
    7.5993    7.7112   20.9469 H   0  0  0  0  0  0  0  0  0  0  0  0
    9.9549    4.7941   21.5594 H   0  0  0  0  0  0  0  0  0  0  0  0
   11.7459    6.0128   22.5165 H   0  0  0  0  0  0  0  0  0  0  0  0
   15.1416    8.4778   21.6457 H   0  0  0  0  0  0  0  0  0  0  0  0
   13.8356    1.3934   22.8946 H   0  0  0  0  0  0  0  0  0  0  0  0
   13.9703    8.1307   25.3163 H   0  0  0  0  0  0  0  0  0  0  0  0
   13.6176    4.1460   22.0630 H   0  0  0  0  0  0  0  0  0  0  0  0
    5.8178    6.1736   19.5788 H   0  0  0  0  0  0  0  0  0  0  0  0
   10.4204    2.7526   21.6226 H   0  0  0  0  0  0  0  0  0  0  0  0
   13.4630    6.9295   23.4551 H   0  0  0  0  0  0  0  0  0  0  0  0
    8.8476   12.0345   23.2086 H   0  0  0  0  0  0  0  0  0  0  0  0
   10.4393   11.7247   23.0153 H   0  0  0  0  0  0  0  0  0  0  0  0
    9.4275   11.6284   21.7370 H   0  0  0  0  0  0  0  0  0  0  0  0
    6.5087   11.6256   21.7287 H   0  0  0  0  0  0  0  0  0  0  0  0
    5.6962   10.9047   20.5093 H   0  0  0  0  0  0  0  0  0  0  0  0
    5.4094   10.4630   22.0550 H   0  0  0  0  0  0  0  0  0  0  0  0
    8.6228    3.0348   18.4419 H   0  0  0  0  0  0  0  0  0  0  0  0
   10.1542    2.7326   18.9217 H   0  0  0  0  0  0  0  0  0  0  0  0
    8.9268    2.6268   19.9936 H   0  0  0  0  0  0  0  0  0  0  0  0
   12.4086    7.3005   19.4087 H   0  0  0  0  0  0  0  0  0  0  0  0
   12.7728    5.7518   19.7770 H   0  0  0  0  0  0  0  0  0  0  0  0
   11.6537    6.0776   18.6333 H   0  0  0  0  0  0  0  0  0  0  0  0
   12.7514   10.1211   25.8186 H   0  0  0  0  0  0  0  0  0  0  0  0
   14.2693   10.2589   26.4048 H   0  0  0  0  0  0  0  0  0  0  0  0
   13.8594   11.0116   25.0148 H   0  0  0  0  0  0  0  0  0  0  0  0
   13.3356    4.7305   24.3472 H   0  0  0  0  0  0  0  0  0  0  0  0
   13.5874    3.1773   24.7841 H   0  0  0  0  0  0  0  0  0  0  0  0
   14.8034    4.0487   24.1295 H   0  0  0  0  0  0  0  0  0  0  0  0
    9.9750    7.9432   24.7433 H   0  0  0  0  0  0  0  0  0  0  0  0
   10.5954    6.4626   24.4443 H   0  0  0  0  0  0  0  0  0  0  0  0
   11.5723    7.7712   24.4502 H   0  0  0  0  0  0  0  0  0  0  0  0
   15.1745    0.4416   20.4024 H   0  0  0  0  0  0  0  0  0  0  0  0
   13.9247   -0.2943   21.1527 H   0  0  0  0  0  0  0  0  0  0  0  0
   13.8065    0.1094   19.5748 H   0  0  0  0  0  0  0  0  0  0  0  0
    7.1577    8.9621   17.5746 H   0  0  0  0  0  0  0  0  0  0  0  0
    7.4481    9.9610   18.8333 H   0  0  0  0  0  0  0  0  0  0  0  0
    8.3267    8.5962   18.6544 H   0  0  0  0  0  0  0  0  0  0  0  0
    5.3228    4.7791   16.3823 H   0  0  0  0  0  0  0  0  0  0  0  0
    6.5519    4.4990   17.4203 H   0  0  0  0  0  0  0  0  0  0  0  0
    5.0199    4.5991   17.9768 H   0  0  0  0  0  0  0  0  0  0  0  0
   18.7055    8.5862   21.8954 H   0  0  0  0  0  0  0  0  0  0  0  0
   17.1703    8.6622   21.3440 H   0  0  0  0  0  0  0  0  0  0  0  0
   17.6379    9.6077   22.5906 H   0  0  0  0  0  0  0  0  0  0  0  0
   19.1664    7.6743   24.0582 H   0  0  0  0  0  0  0  0  0  0  0  0
   18.0697    8.6839   24.7249 H   0  0  0  0  0  0  0  0  0  0  0  0
   17.9562    7.0743   24.9759 H   0  0  0  0  0  0  0  0  0  0  0  0
   13.8667    3.5277   18.0829 H   0  0  0  0  0  0  0  0  0  0  0  0
   13.7813    1.9008   18.1953 H   0  0  0  0  0  0  0  0  0  0  0  0
   12.5121    2.8189   18.6568 H   0  0  0  0  0  0  0  0  0  0  0  0
    6.4952    6.8395   16.8432 H   0  0  0  0  0  0  0  0  0  0  0  0
    4.9632    6.9396   17.3997 H   0  0  0  0  0  0  0  0  0  0  0  0
    6.0858    7.6703   22.6026 H   0  0  0  0  0  0  0  0  0  0  0  0
   15.9904    6.0006   22.1508 H   0  0  0  0  0  0  0  0  0  0  0  0
   15.7525    3.2127   22.5170 H   0  0  0  0  0  0  0  0  0  0  0  0
    8.7633    6.7068   23.3649 H   0  0  0  0  0  0  0  0  0  0  0  0
    4.9377    8.7526   18.1513 H   0  0  0  0  0  0  0  0  0  0  0  0
    7.8160    9.5880   22.7420 C   0  0  0  0  0  0  0  0  0  0  0  0
    8.0930    5.2610   19.7630 C   0  0  0  0  0  0  0  0  0  0  0  0
   10.2910    9.1030   22.2870 C   0  0  1  0  0  0  0  0  0  0  0  0
   15.6080    9.0570   24.4000 C   0  0  2  0  0  0  0  0  0  0  0  0
   12.0740    1.6470   20.9430 C   0  0  2  0  0  0  0  0  0  0  0  0
    9.2550    9.9260   23.0450 C   0  0  1  0  0  0  0  0  0  0  0  0
    7.2290    9.6790   21.3060 C   0  0  1  0  0  0  0  0  0  0  0  0
    9.4590    4.6310   19.5570 C   0  0  1  0  0  0  0  0  0  0  0  0
   10.9170    6.3730   20.6040 C   0  0  1  0  0  0  0  0  0  0  0  0
   15.9330    7.8180   23.5180 C   0  0  1  0  0  0  0  0  0  0  0  0
    6.8040    8.3070   20.8350 C   0  0  2  0  0  0  0  0  0  0  0  0
   10.4170    4.9360   20.6840 C   0  0  2  0  0  0  0  0  0  0  0  0
   11.5070    6.8120   21.9650 C   0  0  2  0  0  0  0  0  0  0  0  0
   14.9950    7.7290   22.2920 C   0  0  2  0  0  0  0  0  0  0  0  0
   14.0770    2.1310   22.2640 C   0  0  1  0  0  0  0  0  0  0  0  0
   14.1360    8.9590   24.7810 C   0  0  1  0  0  0  0  0  0  0  0  0
   13.3950    3.4230   22.7170 C   0  0  2  0  0  0  0  0  0  0  0  0
    6.3700    6.6870   18.9220 C   0  0  1  0  0  0  0  0  0  0  0  0
   11.3990    2.9170   21.4990 C   0  0  1  0  0  0  0  0  0  0  0  0
   13.5850    7.7170   22.8510 C   0  0  1  0  0  0  0  0  0  0  0  0
   10.3950    7.6390   22.6620 C   0  0  1  0  0  0  0  0  0  0  0  0
   13.6020    1.7660   20.8590 C   0  0  1  0  0  0  0  0  0  0  0  0
    6.4410    8.2680   19.3500 C   0  0  2  0  0  0  0  0  0  0  0  0
    9.5170   11.4740   22.7210 C   0  0  0  0  0  0  0  0  0  0  0  0
    6.1100   10.7660   21.4090 C   0  0  0  0  0  0  0  0  0  0  0  0
    9.2740    3.1200   19.1960 C   0  0  0  0  0  0  0  0  0  0  0  0
   12.0400    6.3760   19.5060 C   0  0  0  0  0  0  0  0  0  0  0  0
   13.7180   10.1940   25.5730 C   0  0  0  0  0  0  0  0  0  0  0  0
   13.8170    3.8850   24.1160 C   0  0  0  0  0  0  0  0  0  0  0  0
   10.6590    7.4350   24.2200 C   0  0  0  0  0  0  0  0  0  0  0  0
   14.1780    0.3830   20.4620 C   0  0  0  0  0  0  0  0  0  0  0  0
    7.4220    9.0060   18.5380 C   0  0  0  0  0  0  0  0  0  0  0  0
    5.6690    4.9540   17.3040 C   0  0  0  0  0  0  0  0  0  0  0  0
   17.7490    8.7130   22.1580 C   0  0  0  0  0  0  0  0  0  0  0  0
   18.2060    7.7820   24.3150 C   0  0  0  0  0  0  0  0  0  0  0  0
   13.5100    2.7640   18.6210 C   0  0  0  0  0  0  0  0  0  0  0  0
    5.8430    6.4770   17.5090 C   0  0  2  0  0  0  0  0  0  0  0  0
   17.3550    7.6540   23.1090 N   0  3  1  0  0  0  0  0  0  0  0  0
    7.1660    9.2040   23.7230 O   0  0  0  0  0  0  0  0  0  0  0  0
    7.3550    4.8340   20.6810 O   0  0  0  0  0  0  0  0  0  0  0  0
    7.7520    6.1950   18.9230 O   0  0  0  0  0  0  0  0  0  0  0  0
   13.3780    8.9300   23.5800 O   0  0  0  0  0  0  0  0  0  0  0  0
   11.9920    3.2670   22.7530 O   0  0  0  0  0  0  0  0  0  0  0  0
    5.7590    7.7510   21.6610 O   0  0  0  0  0  0  0  0  0  0  0  0
   15.2180    6.4470   21.6990 O   0  0  0  0  0  0  0  0  0  0  0  0
   15.5110    2.2830   22.2390 O   0  0  0  0  0  0  0  0  0  0  0  0
    9.1500    6.9450   22.4740 O   0  0  0  0  0  0  0  0  0  0  0  0
    5.1490    8.7900   19.1280 O   0  0  0  0  0  0  0  0  0  0  0  0
   11.5950    3.9950   20.5810 O   0  0  0  0  0  0  0  0  0  0  0  0
   12.6700    7.6310   21.7350 O   0  0  0  0  0  0  0  0  0  0  0  0
   14.0480    2.8290   19.9710 O   0  0  0  0  0  0  0  0  0  0  0  0
   17.4867    6.7543   22.6928 H   0  0  0  0  0  0  0  0  0  0  0  0
  1 70  1  0  0  0  0
  2 70  1  0  0  0  0
  3 71  1  0  0  0  0
  4 71  1  0  0  0  0
  5 72  1  0  0  0  0
  6 72  1  0  0  0  0
  7 73  1  0  0  0  0
  8 74  1  0  0  0  0
  9 75  1  0  0  0  0
 10 76  1  0  0  0  0
 11 77  1  0  0  0  0
 12 78  1  0  0  0  0
 13 79  1  0  0  0  0
 14 80  1  0  0  0  0
 15 81  1  0  0  0  0
 16 82  1  0  0  0  0
 17 83  1  0  0  0  0
 18 84  1  0  0  0  0
 19 85  1  0  0  0  0
 20 86  1  0  0  0  0
 21 87  1  0  0  0  0
 22 91  1  0  0  0  0
 23 91  1  0  0  0  0
 24 91  1  0  0  0  0
 25 92  1  0  0  0  0
 26 92  1  0  0  0  0
 27 92  1  0  0  0  0
 28 93  1  0  0  0  0
 29 93  1  0  0  0  0
 30 93  1  0  0  0  0
 31 94  1  0  0  0  0
 32 94  1  0  0  0  0
 33 94  1  0  0  0  0
 34 95  1  0  0  0  0
 35 95  1  0  0  0  0
 36 95  1  0  0  0  0
 37 96  1  0  0  0  0
 38 96  1  0  0  0  0
 39 96  1  0  0  0  0
 40 97  1  0  0  0  0
 41 97  1  0  0  0  0
 42 97  1  0  0  0  0
 43 98  1  0  0  0  0
 44 98  1  0  0  0  0
 45 98  1  0  0  0  0
 46 99  1  0  0  0  0
 47 99  1  0  0  0  0
 48 99  1  0  0  0  0
 49100  1  0  0  0  0
 50100  1  0  0  0  0
 51100  1  0  0  0  0
 52101  1  0  0  0  0
 53101  1  0  0  0  0
 54101  1  0  0  0  0
 55102  1  0  0  0  0
 56102  1  0  0  0  0
 57102  1  0  0  0  0
 58103  1  0  0  0  0
 59103  1  0  0  0  0
 60103  1  0  0  0  0
 61104  1  0  0  0  0
 62104  1  0  0  0  0
 63111  1  0  0  0  0
 64112  1  0  0  0  0
 65113  1  0  0  0  0
 66114  1  0  0  0  0
 67115  1  0  0  0  0
 68 73  1  0  0  0  0
 68 74  1  0  0  0  0
 68106  2  0  0  0  0
 69 75  1  0  0  0  0
 69107  2  0  0  0  0
 69108  1  0  0  0  0
 70 73  1  0  0  0  0
 70 88  1  0  0  0  0
 71 77  1  0  0  0  0
 71 83  1  0  0  0  0
 72 86  1  0  0  0  0
 72 89  1  0  0  0  0
 73 91  1  0  0  0  0
 74 78  1  0  0  0  0
 74 92  1  0  0  0  0
 75 79  1  0  0  0  0
 75 93  1  0  0  0  0
 76 79  1  0  0  0  0
 76 80  1  0  0  0  0
 76 94  1  0  0  0  0
 77 81  1  0  0  0  0
 77105  1  0  0  0  0
 78 90  1  0  0  0  0
 78111  1  0  0  0  0
 79116  1  0  0  0  0
 80 88  1  0  0  0  0
 80117  1  0  0  0  0
 81 87  1  0  0  0  0
 81112  1  0  0  0  0
 82 84  1  0  0  0  0
 82 89  1  0  0  0  0
 82113  1  0  0  0  0
 83 95  1  0  0  0  0
 83109  1  0  0  0  0
 84 96  1  0  0  0  0
 84110  1  0  0  0  0
 85 90  1  0  0  0  0
 85104  1  0  0  0  0
 85108  1  0  0  0  0
 86110  1  0  0  0  0
 86116  1  0  0  0  0
 87109  1  0  0  0  0
 87117  1  0  0  0  0
 88 97  1  0  0  0  0
 88114  1  0  0  0  0
 89 98  1  0  0  0  0
 89118  1  0  0  0  0
 90 99  1  0  0  0  0
 90115  1  0  0  0  0
100104  1  0  0  0  0
101105  1  0  0  0  0
102105  1  0  0  0  0
103118  1  0  0  0  0
105119  1  0  0  0  0
M  CHG  1 105   1
M  END
> <scpdb_id>
3frq_1

$$$$
