#    Name: 2515
#    Modification time : Tue Aug  8 20:59:34 2017

@<TRIPOS>MOLECULE
2515
   45     0     9     0     0
SMALL
NO_CHARGES


@<TRIPOS>ATOM
      1 N          40.2840   41.0320   50.9630 N.am      1 SEL1        0.0000 
      2 N          40.6600   41.6900   53.4130 N.am      1 SEL1        0.0000 
      3 N          38.6560   45.8730   51.8520 N.am      1 SEL1        0.0000 
      4 O          40.2840   41.0320   50.9630 O.2       2 ALL2        0.0000 
      5 O          38.6560   45.8730   51.8520 O.2       2 ALL2        0.0000 
      6 O          35.5500   45.3190   44.4450 O.2       2 ALL2        0.0000 
      7 CA         41.7640   43.6000   50.2980 C.3       3 GLL5        0.0000 
      8 CA         40.6950   44.6410   50.5130 C.3       3 GLL5        0.0000 
      9 CA         39.4000   43.9620   50.7210 C.3       3 GLL5        0.0000 
     10 CA         38.3100   45.0890   50.7230 C.3       3 GLL5        0.0000 
     11 CA         38.9420   45.8500   49.4620 C.3       3 GLL5        0.0000 
     12 N          42.1570   39.7700   49.4580 N.am      4 SEP1        0.0000 
     13 N          39.8230   41.0380   48.2180 N.am      4 SEP1        0.0000 
     14 N          42.0870   42.0620   55.9010 N.am      4 SEP1        0.0000 
     15 N          43.7720   41.4960   54.4360 N.am      4 SEP1        0.0000 
     16 N          39.8050   45.9460   54.2540 N.am      4 SEP1        0.0000 
     17 O          39.5500   38.3030   51.7390 O.2       5 ALP2        0.0000 
     18 O          36.5290   45.9230   53.3660 O.2       5 ALP2        0.0000 
     19 O          36.0350   42.5720   43.8130 O.2       5 ALP2        0.0000 
     20 O          33.0800   46.2890   43.1130 O.2       5 ALP2        0.0000 
     21 CA         45.6750   43.9920   51.9830 C.3       6 GLP5        0.0000 
     22 CA         44.6450   40.5430   51.6300 C.3       6 GLP5        0.0000 
     23 CA         42.7140   43.4500   46.0770 C.3       6 GLP5        0.0000 
     24 CA         40.7430   48.6900   52.4730 C.3       6 GLP5        0.0000 
     25 CA         36.6390   41.6870   49.6060 C.3       6 GLP5        0.0000 
     26 CA         36.2230   41.8180   51.0580 C.3       6 GLP5        0.0000 
     27 CA         41.0240   46.8920   46.0580 C.3       6 GLP5        0.0000 
     28 CA         43.4480   47.3870   49.8850 C.3       6 GLP5        0.0000 
     29 N          41.2205   40.4010   50.2105 N.am      7 SEC1        0.0000 
     30 N          40.0535   41.0350   49.5905 N.am      7 SEC1        0.0000 
     31 N          41.3735   41.8760   54.6570 N.am      7 SEC1        0.0000 
     32 N          42.2160   41.5930   53.9245 N.am      7 SEC1        0.0000 
     33 N          39.2305   45.9095   53.0530 N.am      7 SEC1        0.0000 
     34 O          39.9170   39.6675   51.3510 O.2       8 ALC2        0.0000 
     35 O          37.5925   45.8980   52.6090 O.2       8 ALC2        0.0000 
     36 O          35.7925   43.9455   44.1290 O.2       8 ALC2        0.0000 
     37 O          34.3150   45.8040   43.7790 O.2       8 ALC2        0.0000 
     38 CA         43.7195   43.7960   51.1405 C.3       9 GLC5        0.0000 
     39 CA         43.2045   42.0715   50.9640 C.3       9 GLC5        0.0000 
     40 CA         42.2390   43.5250   48.1875 C.3       9 GLC5        0.0000 
     41 CA         40.7190   46.6655   51.4930 C.3       9 GLC5        0.0000 
     42 CA         38.0195   42.8245   50.1635 C.3       9 GLC5        0.0000 
     43 CA         37.2665   43.4535   50.8905 C.3       9 GLC5        0.0000 
     44 CA         39.9830   46.3710   47.7600 C.3       9 GLC5        0.0000 
     45 CA         42.3388   45.7537   50.1452 C.3       9 GLC5        0.0000 
@<TRIPOS>BOND
@<TRIPOS>SUBSTRUCTURE
     1 SEL1        1 GROUP        1 Z    SEL  0     ROOT SEL Z 0
     2 ALL2        4 GROUP        1 Z    ALL  0     **** ALL Z 1
     3 GLL5        7 GROUP        1 Z    GLL  0     **** GLL Z 4
     4 SEP1       12 GROUP        1 Z    SEP  0     **** SEP Z 7
     5 ALP2       17 GROUP        1 Z    ALP  0     **** ALP Z 8
     6 GLP5       21 GROUP        1 Z    GLP  0     **** GLP Z 11
     7 SEC1       29 GROUP        1 Z    SEC  0     **** SEC Z 14
     8 ALC2       34 GROUP        1 Z    ALC  0     **** ALC Z 15
     9 GLC5       38 GROUP        1 Z    GLC  0     **** GLC Z 18
@<TRIPOS>SET

