@<TRIPOS>MOLECULE
1g6n_CMP_1_ligand
   34    37     1     0     0
SMALL
NO_CHARGES


@<TRIPOS>ATOM
     1 P           40.5580    42.0620    52.0210 P.3          1 CMP621   0.0000
     2 O1P         40.2840    41.0320    50.9630 O.3          1 CMP621   0.0000
     3 O2P         40.6600    41.6900    53.4130 O.2          1 CMP621   0.0000
     4 O5'         41.8520    42.8720    51.5310 O.3          1 CMP621   0.0000
     5 C5'         41.7640    43.6000    50.2980 C.3          1 CMP621   0.0000
     6 C4'         40.6950    44.6410    50.5130 C.3          1 CMP621   0.0000
     7 O4'         40.3340    45.3930    49.3610 O.3          1 CMP621   0.0000
     8 C3'         39.4000    43.9620    50.7210 C.3          1 CMP621   0.0000
     9 O3'         39.5110    43.3140    52.0320 O.3          1 CMP621   0.0000
    10 C2'         38.3100    45.0890    50.7230 C.3          1 CMP621   0.0000
    11 O2'         38.6560    45.8730    51.8520 O.3          1 CMP621   0.0000
    12 C1'         38.9420    45.8500    49.4620 C.3          1 CMP621   0.0000
    13 N9          38.3420    45.4400    48.1760 N.pl3        1 CMP621   0.0000
    14 C8          38.4490    44.2440    47.4610 C.2          1 CMP621   0.0000
    15 N7          37.6760    44.1950    46.4090 N.2          1 CMP621   0.0000
    16 C5          37.0100    45.3890    46.4110 C.ar         1 CMP621   0.0000
    17 C6          36.1030    45.9350    45.4950 C.ar         1 CMP621   0.0000
    18 N6          35.5500    45.3190    44.4450 N.pl3        1 CMP621   0.0000
    19 N1          35.7080    47.1940    45.8190 N.ar         1 CMP621   0.0000
    20 C2          36.1730    47.8440    46.8630 C.ar         1 CMP621   0.0000
    21 N3          37.0390    47.4410    47.7610 N.ar         1 CMP621   0.0000
    22 C4          37.4030    46.1750    47.4660 C.ar         1 CMP621   0.0000
    23 H1P         39.7376    40.2908    51.3529 H            1 CMP621   0.0000
    24 H5'1        41.5089    42.9880    49.5494 H            1 CMP621   0.0000
    25 H5'2        42.6387    44.0369    50.0881 H            1 CMP621   0.0000
    26 H4'         40.9195    45.2393    51.2822 H            1 CMP621   0.0000
    27 H3'         39.2243    43.2912    50.0005 H            1 CMP621   0.0000
    28 H2'         37.3562    44.7985    50.6469 H            1 CMP621   0.0000
    29 H7          37.8940    45.8794    52.4995 H            1 CMP621   0.0000
    30 H1'         38.8965    46.8419    49.5804 H            1 CMP621   0.0000
    31 H9          39.0584    43.4978    47.7288 H            1 CMP621   0.0000
    32 H10         34.9106    45.8126    43.8555 H            1 CMP621   0.0000
    33 H11         35.7758    44.3647    44.2492 H            1 CMP621   0.0000
    34 H12         35.8184    48.7705    46.9890 H            1 CMP621   0.0000
@<TRIPOS>BOND
     1    1    2       1
     2    1    3       2
     3    1    4       1
     4    1    9       1
     5    4    5       1
     6    5    6       1
     7    6    7       1
     8    6    8       1
     9    7   12       1
    10    8    9       1
    11    8   10       1
    12   10   11       1
    13   10   12       1
    14   12   13       1
    15   13   14       1
    16   13   22       1
    17   14   15       2
    18   15   16       1
    19   16   17      ar
    20   16   22      ar
    21   17   18       1
    22   17   19      ar
    23   19   20      ar
    24   20   21      ar
    25   21   22      ar
    26    2   23       1
    27    5   24       1
    28    5   25       1
    29    6   26       1
    30    8   27       1
    31   10   28       1
    32   11   29       1
    33   12   30       1
    34   14   31       1
    35   18   32       1
    36   18   33       1
    37   20   34       1
@<TRIPOS>SUBSTRUCTURE
     1 CMP621      1 GROUP             4 A     CMP     0 **** CMP A 621
