1g6n_CMP_1_ligand
  -OEChem-08111718373D

 33 36  0     1  0  0  0  0  0999 V2000
   35.8184   48.7705   46.9890 H   0  0  0  0  0  0  0  0  0  0  0  0
   39.0584   43.4978   47.7288 H   0  0  0  0  0  0  0  0  0  0  0  0
   41.5089   42.9880   49.5494 H   0  0  0  0  0  0  0  0  0  0  0  0
   42.6387   44.0369   50.0881 H   0  0  0  0  0  0  0  0  0  0  0  0
   40.9195   45.2393   51.2822 H   0  0  0  0  0  0  0  0  0  0  0  0
   39.2243   43.2912   50.0005 H   0  0  0  0  0  0  0  0  0  0  0  0
   37.3562   44.7985   50.6469 H   0  0  0  0  0  0  0  0  0  0  0  0
   38.8965   46.8419   49.5804 H   0  0  0  0  0  0  0  0  0  0  0  0
   34.9106   45.8126   43.8555 H   0  0  0  0  0  0  0  0  0  0  0  0
   35.7758   44.3647   44.2492 H   0  0  0  0  0  0  0  0  0  0  0  0
   37.8940   45.8794   52.4995 H   0  0  0  0  0  0  0  0  0  0  0  0
   36.1730   47.8440   46.8630 C   0  0  0  0  0  0  0  0  0  0  0  0
   38.4490   44.2440   47.4610 C   0  0  0  0  0  0  0  0  0  0  0  0
   37.0100   45.3890   46.4110 C   0  0  0  0  0  0  0  0  0  0  0  0
   37.4030   46.1750   47.4660 C   0  0  0  0  0  0  0  0  0  0  0  0
   36.1030   45.9350   45.4950 C   0  0  0  0  0  0  0  0  0  0  0  0
   41.7640   43.6000   50.2980 C   0  0  1  0  0  0  0  0  0  0  0  0
   40.6950   44.6410   50.5130 C   0  0  2  0  0  0  0  0  0  0  0  0
   39.4000   43.9620   50.7210 C   0  0  2  0  0  0  0  0  0  0  0  0
   38.3100   45.0890   50.7230 C   0  0  2  0  0  0  0  0  0  0  0  0
   38.9420   45.8500   49.4620 C   0  0  2  0  0  0  0  0  0  0  0  0
   37.0390   47.4410   47.7610 N   0  0  0  0  0  0  0  0  0  0  0  0
   35.7080   47.1940   45.8190 N   0  0  0  0  0  0  0  0  0  0  0  0
   37.6760   44.1950   46.4090 N   0  0  0  0  0  0  0  0  0  0  0  0
   38.3420   45.4400   48.1760 N   0  0  0  0  0  0  0  0  0  0  0  0
   35.5500   45.3190   44.4450 N   0  0  0  0  0  0  0  0  0  0  0  0
   40.6600   41.6900   53.4130 O   0  0  0  0  0  0  0  0  0  0  0  0
   41.8520   42.8720   51.5310 O   0  0  0  0  0  0  0  0  0  0  0  0
   40.3340   45.3930   49.3610 O   0  0  0  0  0  0  0  0  0  0  0  0
   39.5110   43.3140   52.0320 O   0  0  0  0  0  0  0  0  0  0  0  0
   38.6560   45.8730   51.8520 O   0  0  0  0  0  0  0  0  0  0  0  0
   40.2840   41.0320   50.9630 O   0  5  0  0  0  0  0  0  0  0  0  0
   40.5580   42.0620   52.0210 P   0  0  2  0  0  0  0  0  0  0  0  0
  1 12  1  0  0  0  0
  2 13  1  0  0  0  0
  3 17  1  0  0  0  0
  4 17  1  0  0  0  0
  5 18  1  0  0  0  0
  6 19  1  0  0  0  0
  7 20  1  0  0  0  0
  8 21  1  0  0  0  0
  9 26  1  0  0  0  0
 10 26  1  0  0  0  0
 11 31  1  0  0  0  0
 12 22  1  0  0  0  0
 12 23  2  0  0  0  0
 13 24  2  0  0  0  0
 13 25  1  0  0  0  0
 14 15  1  0  0  0  0
 14 16  2  0  0  0  0
 14 24  1  0  0  0  0
 15 22  2  0  0  0  0
 15 25  1  0  0  0  0
 16 23  1  0  0  0  0
 16 26  1  0  0  0  0
 17 18  1  0  0  0  0
 17 28  1  0  0  0  0
 18 19  1  0  0  0  0
 18 29  1  0  0  0  0
 19 20  1  0  0  0  0
 19 30  1  0  0  0  0
 20 21  1  0  0  0  0
 20 31  1  0  0  0  0
 21 25  1  0  0  0  0
 21 29  1  0  0  0  0
 27 33  2  0  0  0  0
 28 33  1  0  0  0  0
 30 33  1  0  0  0  0
 32 33  1  0  0  0  0
M  CHG  1  32  -1
M  END
> <scpdb_id>
1g6n_1

$$$$
