#    Name: 25499
#    Modification time : Tue Aug  8 23:56:09 2017

@<TRIPOS>MOLECULE
25499
   53     0     9     0     0
SMALL
NO_CHARGES


@<TRIPOS>ATOM
      1 N          78.9530   58.3800    3.5340 N.am      1 SEL1        0.0000 
      2 N          78.8490   60.0000    5.1260 N.am      1 SEL1        0.0000 
      3 NZ         78.9530   58.3800    3.5340 N.4       2 LYL3        0.0000 
      4 CA         84.9700   60.4970   14.6050 C.3       3 GLL5        0.0000 
      5 CA         85.2130   61.4710   13.4810 C.3       3 GLL5        0.0000 
      6 CA         82.6040   60.2320   14.0720 C.3       3 GLL5        0.0000 
      7 CA         83.8330   58.3690   15.0960 C.3       3 GLL5        0.0000 
      8 CA         85.5560   58.9680   10.6680 C.3       3 GLL5        0.0000 
      9 CA         82.5080   55.3670   11.8020 C.3       3 GLL5        0.0000 
     10 CA         80.3060   59.5720    7.1340 C.3       3 GLL5        0.0000 
     11 CA         85.9720   60.7540   12.3930 C.3       3 GLL5        0.0000 
     12 N          80.1580   60.1440    1.5180 N.am      4 SEP1        0.0000 
     13 N          79.2330   58.1870    0.7490 N.am      4 SEP1        0.0000 
     14 N          77.5150   61.5640    3.0510 N.am      4 SEP1        0.0000 
     15 NZ         79.7360   59.3920    0.5070 N.4       5 LYP3        0.0000 
     16 CA         86.5880   63.5840   17.0100 C.3       6 GLP5        0.0000 
     17 CA         86.7180   64.9640   14.9210 C.3       6 GLP5        0.0000 
     18 CA         80.7510   63.1070   16.6930 C.3       6 GLP5        0.0000 
     19 CA         81.2100   61.0970   10.5180 C.3       6 GLP5        0.0000 
     20 CA         78.5500   59.8920   15.1620 C.3       6 GLP5        0.0000 
     21 CA         86.2130   55.0430   13.7830 C.3       6 GLP5        0.0000 
     22 CA         84.9250   58.6380    6.8210 C.3       6 GLP5        0.0000 
     23 CA         89.5520   58.7610    8.6230 C.3       6 GLP5        0.0000 
     24 CA         87.0580   56.2740   12.7520 C.3       6 GLP5        0.0000 
     25 CA         85.9580   53.8920    9.6360 C.3       6 GLP5        0.0000 
     26 CA         82.9280   51.1060   11.3690 C.3       6 GLP5        0.0000 
     27 CA         76.8060   61.2630    7.0730 C.3       6 GLP5        0.0000 
     28 CA         83.0200   57.9180    5.5970 C.3       6 GLP5        0.0000 
     29 CA         80.7000   63.4960    6.3860 C.3       6 GLP5        0.0000 
     30 CA         82.9260   63.5730   10.7650 C.3       6 GLP5        0.0000 
     31 CA         89.3990   60.4020   14.2100 C.3       6 GLP5        0.0000 
     32 N          79.5555   59.2620    2.5260 N.am      7 SEC1        0.0000 
     33 N          79.0930   58.2835    2.1415 N.am      7 SEC1        0.0000 
     34 N          78.1820   60.7820    4.0885 N.am      7 SEC1        0.0000 
     35 NZ         79.3445   58.8860    2.0205 N.4       8 LYC3        0.0000 
     36 CA         85.7790   62.0405   15.8075 C.3       9 GLC5        0.0000 
     37 CA         85.9655   63.2175   14.2010 C.3       9 GLC5        0.0000 
     38 CA         81.6775   61.6695   15.3825 C.3       9 GLC5        0.0000 
     39 CA         81.9070   60.6645   12.2950 C.3       9 GLC5        0.0000 
     40 CA         80.5770   60.0620   14.6170 C.3       9 GLC5        0.0000 
     41 CA         85.0230   56.7060   14.4395 C.3       9 GLC5        0.0000 
     42 CA         85.2405   58.8030    8.7445 C.3       9 GLC5        0.0000 
     43 CA         87.5540   58.8645    9.6455 C.3       9 GLC5        0.0000 
     44 CA         86.3070   57.6210   11.7100 C.3       9 GLC5        0.0000 
     45 CA         84.2330   54.6295   10.7190 C.3       9 GLC5        0.0000 
     46 CA         82.7180   53.2365   11.5855 C.3       9 GLC5        0.0000 
     47 CA         84.3605   55.2050   12.7925 C.3       9 GLC5        0.0000 
     48 CA         80.7580   60.3345    8.8260 C.3       9 GLC5        0.0000 
     49 CA         78.5560   60.4175    7.1035 C.3       9 GLC5        0.0000 
     50 CA         81.6630   58.7450    6.3655 C.3       9 GLC5        0.0000 
     51 CA         80.5030   61.5340    6.7600 C.3       9 GLC5        0.0000 
     52 CA         84.2593   62.3427   11.8510 C.3       9 GLC5        0.0000 
     53 CA         87.4654   60.6355   13.7140 C.3       9 GLC5        0.0000 
@<TRIPOS>BOND
@<TRIPOS>SUBSTRUCTURE
     1 SEL1        1 GROUP        1 Z    SEL  0     ROOT SEL Z 0
     2 LYL3        3 GROUP        1 Z    LYL  0     **** LYL Z 2
     3 GLL5        4 GROUP        1 Z    GLL  0     **** GLL Z 4
     4 SEP1       12 GROUP        1 Z    SEP  0     **** SEP Z 7
     5 LYP3       15 GROUP        1 Z    LYP  0     **** LYP Z 9
     6 GLP5       16 GROUP        1 Z    GLP  0     **** GLP Z 11
     7 SEC1       32 GROUP        1 Z    SEC  0     **** SEC Z 14
     8 LYC3       35 GROUP        1 Z    LYC  0     **** LYC Z 16
     9 GLC5       36 GROUP        1 Z    GLC  0     **** GLC Z 18
@<TRIPOS>SET

