2dt5_NAD_1_ligand
  -OEChem-08111718373D

 74 78  0     1  0  0  0  0  0999 V2000
   24.4086   26.2776   26.9959 H   0  0  0  0  0  0  0  0  0  0  0  0
   28.2740   29.3240   31.1223 H   0  0  0  0  0  0  0  0  0  0  0  0
   39.0399   27.6846   24.2267 H   0  0  0  0  0  0  0  0  0  0  0  0
   40.2746   30.7537   21.9291 H   0  0  0  0  0  0  0  0  0  0  0  0
   41.0349   30.8465   23.3713 H   0  0  0  0  0  0  0  0  0  0  0  0
   38.3104   31.3856   22.7790 H   0  0  0  0  0  0  0  0  0  0  0  0
   39.3630   32.3188   23.6084 H   0  0  0  0  0  0  0  0  0  0  0  0
   38.9142   31.4521   25.4232 H   0  0  0  0  0  0  0  0  0  0  0  0
   37.4995   31.1558   24.6632 H   0  0  0  0  0  0  0  0  0  0  0  0
   28.6628   33.0637   28.8757 H   0  0  0  0  0  0  0  0  0  0  0  0
   35.3577   29.4768   28.2208 H   0  0  0  0  0  0  0  0  0  0  0  0
   27.7986   31.4427   30.1133 H   0  0  0  0  0  0  0  0  0  0  0  0
   37.0889   30.4973   27.1125 H   0  0  0  0  0  0  0  0  0  0  0  0
   28.8688   31.5643   26.5496 H   0  0  0  0  0  0  0  0  0  0  0  0
   34.5237   28.2685   25.9319 H   0  0  0  0  0  0  0  0  0  0  0  0
   26.6500   30.2110   27.7556 H   0  0  0  0  0  0  0  0  0  0  0  0
   37.5139   27.9182   25.8131 H   0  0  0  0  0  0  0  0  0  0  0  0
   30.6483   31.4805   28.8413 H   0  0  0  0  0  0  0  0  0  0  0  0
   31.0203   30.8772   27.3701 H   0  0  0  0  0  0  0  0  0  0  0  0
   33.8108   30.3262   25.0897 H   0  0  0  0  0  0  0  0  0  0  0  0
   33.4684   30.2250   26.6832 H   0  0  0  0  0  0  0  0  0  0  0  0
   25.2683   23.9901   30.7996 H   0  0  0  0  0  0  0  0  0  0  0  0
   26.3173   24.9938   31.7441 H   0  0  0  0  0  0  0  0  0  0  0  0
   40.6452   26.1122   21.6958 H   0  0  0  0  0  0  0  0  0  0  0  0
   39.5168   26.4989   22.9516 H   0  0  0  0  0  0  0  0  0  0  0  0
   26.7161   32.5198   26.8823 H   0  0  0  0  0  0  0  0  0  0  0  0
   34.9846   27.1535   27.9997 H   0  0  0  0  0  0  0  0  0  0  0  0
   25.3388   31.7120   28.9552 H   0  0  0  0  0  0  0  0  0  0  0  0
   38.9073   28.7139   27.6746 H   0  0  0  0  0  0  0  0  0  0  0  0
   24.9590   26.4950   27.8020 C   0  0  0  0  0  0  0  0  0  0  0  0
   27.6660   28.7270   30.5990 C   0  0  0  0  0  0  0  0  0  0  0  0
   26.4770   27.0210   30.0820 C   0  0  0  0  0  0  0  0  0  0  0  0
   26.3810   27.9390   29.0150 C   0  0  0  0  0  0  0  0  0  0  0  0
   25.7500   25.7570   29.9750 C   0  0  0  0  0  0  0  0  0  0  0  0
   39.1820   28.6700   24.1330 C   0  0  0  0  0  0  0  0  0  0  0  0
   39.9340   29.0940   23.1400 C   0  0  0  0  0  0  0  0  0  0  0  0
   40.5870   28.0930   22.2280 C   0  0  0  0  0  0  0  0  0  0  0  0
   40.1890   30.5790   22.9100 C   0  0  2  0  0  0  0  0  0  0  0  0
   39.0380   31.3840   23.4650 C   0  0  2  0  0  0  0  0  0  0  0  0
   38.4730   30.9290   24.6940 C   0  0  1  0  0  0  0  0  0  0  0  0
   28.1050   32.4280   28.3420 C   0  0  1  0  0  0  0  0  0  0  0  0
   35.8110   28.9350   27.5130 C   0  0  1  0  0  0  0  0  0  0  0  0
   27.2780   31.5630   29.2680 C   0  0  2  0  0  0  0  0  0  0  0  0
   37.1730   29.5040   27.1920 C   0  0  2  0  0  0  0  0  0  0  0  0
   29.0250   31.4620   27.5320 C   0  0  1  0  0  0  0  0  0  0  0  0
   35.0630   29.0900   26.1170 C   0  0  1  0  0  0  0  0  0  0  0  0
   27.3210   30.2180   28.4970 C   0  0  2  0  0  0  0  0  0  0  0  0
   37.3920   28.9090   25.7550 C   0  0  2  0  0  0  0  0  0  0  0  0
   30.5030   31.5810   27.8570 C   0  0  1  0  0  0  0  0  0  0  0  0
   34.2040   30.2800   26.0080 C   0  0  1  0  0  0  0  0  0  0  0  0
   25.6270   27.7180   27.8580 N   0  0  0  0  0  0  0  0  0  0  0  0
   25.0350   25.6030   28.8000 N   0  0  0  0  0  0  0  0  0  0  0  0
   27.2670   27.5390   31.0280 N   0  0  0  0  0  0  0  0  0  0  0  0
   27.1570   29.0620   29.3510 N   0  0  0  0  0  0  0  0  0  0  0  0
   38.5630   29.5220   25.0750 N   0  3  1  0  0  0  0  0  0  0  0  0
   25.7810   24.8410   30.9140 N   0  0  0  0  0  0  0  0  0  0  0  0
   40.2170   26.7860   22.2980 N   0  0  0  0  0  0  0  0  0  0  0  0
   32.1100   33.6870   29.5000 O   0  5  0  0  0  0  0  0  0  0  0  0
   33.3370   33.0960   25.1260 O   0  5  0  0  0  0  0  0  0  0  0  0
   41.4840   28.5080   21.4670 O   0  0  0  0  0  0  0  0  0  0  0  0
   32.2100   34.9800   27.2830 O   0  0  0  0  0  0  0  0  0  0  0  0
   35.3720   33.9680   26.4980 O   0  0  0  0  0  0  0  0  0  0  0  0
   28.6340   30.1060   27.9880 O   0  0  0  0  0  0  0  0  0  0  0  0
   36.1610   29.2060   25.1120 O   0  0  0  0  0  0  0  0  0  0  0  0
   27.2740   33.1620   27.4080 O   0  0  0  0  0  0  0  0  0  0  0  0
   35.9040   27.5370   27.9120 O   0  0  0  0  0  0  0  0  0  0  0  0
   26.0130   32.0400   29.6170 O   0  0  0  0  0  0  0  0  0  0  0  0
   38.1700   29.2210   28.1210 O   0  0  0  0  0  0  0  0  0  0  0  0
   30.9250   32.9070   27.4200 O   0  0  0  0  0  0  0  0  0  0  0  0
   35.0090   31.4760   26.2570 O   0  0  0  0  0  0  0  0  0  0  0  0
   33.4110   32.8310   27.5890 O   0  0  0  0  0  0  0  0  0  0  0  0
   32.1480   33.6900   28.0220 P   0  0  2  0  0  0  0  0  0  0  0  0
   34.3200   32.9250   26.2570 P   0  0  2  0  0  0  0  0  0  0  0  0
   39.2363   29.5498   25.8139 H   0  0  0  0  0  0  0  0  0  0  0  0
  1 30  1  0  0  0  0
  2 31  1  0  0  0  0
  3 35  1  0  0  0  0
  4 38  1  0  0  0  0
  5 38  1  0  0  0  0
  6 39  1  0  0  0  0
  7 39  1  0  0  0  0
  8 40  1  0  0  0  0
  9 40  1  0  0  0  0
 10 41  1  0  0  0  0
 11 42  1  0  0  0  0
 12 43  1  0  0  0  0
 13 44  1  0  0  0  0
 14 45  1  0  0  0  0
 15 46  1  0  0  0  0
 16 47  1  0  0  0  0
 17 48  1  0  0  0  0
 18 49  1  0  0  0  0
 19 49  1  0  0  0  0
 20 50  1  0  0  0  0
 21 50  1  0  0  0  0
 22 56  1  0  0  0  0
 23 56  1  0  0  0  0
 24 57  1  0  0  0  0
 25 57  1  0  0  0  0
 26 65  1  0  0  0  0
 27 66  1  0  0  0  0
 28 67  1  0  0  0  0
 29 68  1  0  0  0  0
 30 51  1  0  0  0  0
 30 52  2  0  0  0  0
 31 53  2  0  0  0  0
 31 54  1  0  0  0  0
 32 33  1  0  0  0  0
 32 34  2  0  0  0  0
 32 53  1  0  0  0  0
 33 51  2  0  0  0  0
 33 54  1  0  0  0  0
 34 52  1  0  0  0  0
 34 56  1  0  0  0  0
 35 36  2  0  0  0  0
 35 55  1  0  0  0  0
 36 37  1  0  0  0  0
 36 38  1  0  0  0  0
 37 57  1  0  0  0  0
 37 60  2  0  0  0  0
 38 39  1  0  0  0  0
 39 40  1  0  0  0  0
 40 55  1  0  0  0  0
 41 43  1  0  0  0  0
 41 45  1  0  0  0  0
 41 65  1  0  0  0  0
 42 44  1  0  0  0  0
 42 46  1  0  0  0  0
 42 66  1  0  0  0  0
 43 47  1  0  0  0  0
 43 67  1  0  0  0  0
 44 48  1  0  0  0  0
 44 68  1  0  0  0  0
 45 49  1  0  0  0  0
 45 63  1  0  0  0  0
 46 50  1  0  0  0  0
 46 64  1  0  0  0  0
 47 54  1  0  0  0  0
 47 63  1  0  0  0  0
 48 55  1  0  0  0  0
 48 64  1  0  0  0  0
 49 69  1  0  0  0  0
 50 70  1  0  0  0  0
 58 72  1  0  0  0  0
 59 73  1  0  0  0  0
 61 72  2  0  0  0  0
 62 73  2  0  0  0  0
 69 72  1  0  0  0  0
 70 73  1  0  0  0  0
 71 72  1  0  0  0  0
 71 73  1  0  0  0  0
 55 74  1  0  0  0  0
M  CHG  3  58  -1  59  -1  55   1
M  END
> <scpdb_id>
2dt5_1

$$$$
