#    Name: 28029
#    Modification time : Wed Aug  9 00:57:40 2017

@<TRIPOS>MOLECULE
28029
   72     0    12     0     0
SMALL
NO_CHARGES


@<TRIPOS>ATOM
      1 N         -43.7280  -31.1190   -5.7600 N.am      1 SEL1        0.0000 
      2 O         -44.0550  -29.6830   -4.0970 O.2       2 ALL2        0.0000 
      3 CA        -42.2480  -27.9560   -6.7210 C.3       3 GLL5        0.0000 
      4 CA        -39.6800  -30.5300    0.3470 C.3       3 GLL5        0.0000 
      5 CA        -38.7930  -28.9660   -4.8550 C.3       3 GLL5        0.0000 
      6 CA        -45.7110  -32.9300    2.3400 C.3       3 GLL5        0.0000 
      7 CA        -44.4790  -33.4050    2.8170 C.3       3 GLL5        0.0000 
      8 CA        -41.7420  -33.7650    2.2580 C.3       3 GLL5        0.0000 
      9 CA        -47.2410  -32.9440    3.2780 C.3       3 GLL5        0.0000 
     10 CA        -46.1280  -29.3160   -6.8100 C.3       3 GLL5        0.0000 
     11 CA        -44.6010  -27.3960   -8.1810 C.3       3 GLL5        0.0000 
     12 CA        -44.8580  -32.2450    0.1950 C.3       3 GLL5        0.0000 
     13 CA        -41.1330  -29.8570   -3.7570 C.3       3 GLL5        0.0000 
     14 CZ        -40.6525  -30.0865   -2.4505 C.ar      4 PHL6        0.0000 
     15 N         -42.7630  -32.3410   -8.6860 N.am      5 SEP1        0.0000 
     16 N         -45.6220  -33.6520   -5.9870 N.am      5 SEP1        0.0000 
     17 O         -44.8880  -27.3800   -3.1720 O.2       6 ALP2        0.0000 
     18 CA        -40.6820  -31.3560   -8.0250 C.3       7 GLP5        0.0000 
     19 CA        -40.5220  -25.2100   -7.9120 C.3       7 GLP5        0.0000 
     20 CA        -41.7010  -26.4880   -3.1880 C.3       7 GLP5        0.0000 
     21 CA        -44.3580  -24.7290   -5.6570 C.3       7 GLP5        0.0000 
     22 CA        -41.9060  -28.5950  -10.4240 C.3       7 GLP5        0.0000 
     23 CA        -40.4530  -28.7540    4.1740 C.3       7 GLP5        0.0000 
     24 CA        -40.5640  -26.6490   -1.0610 C.3       7 GLP5        0.0000 
     25 CA        -39.4790  -32.9360   -4.8440 C.3       7 GLP5        0.0000 
     26 CA        -39.2890  -31.3410   -8.0770 C.3       7 GLP5        0.0000 
     27 CA        -35.1300  -30.4380   -5.8910 C.3       7 GLP5        0.0000 
     28 CA        -40.5310  -26.0560   -3.7930 C.3       7 GLP5        0.0000 
     29 CA        -46.2330  -28.5320    2.6310 C.3       7 GLP5        0.0000 
     30 CA        -42.1180  -32.8610    6.4920 C.3       7 GLP5        0.0000 
     31 CA        -41.1360  -34.0150    6.4150 C.3       7 GLP5        0.0000 
     32 CA        -42.5840  -30.1030    4.2000 C.3       7 GLP5        0.0000 
     33 CA        -38.4550  -33.8640    3.4420 C.3       7 GLP5        0.0000 
     34 CA        -43.8740  -30.3280    4.6460 C.3       7 GLP5        0.0000 
     35 CA        -49.4570  -29.1140   -5.1200 C.3       7 GLP5        0.0000 
     36 CA        -43.7200  -24.5560  -10.5070 C.3       7 GLP5        0.0000 
     37 CA        -45.4360  -28.5980    0.2850 C.3       7 GLP5        0.0000 
     38 CA        -37.3270  -32.7880   -0.4990 C.3       7 GLP5        0.0000 
     39 CA        -49.6360  -33.1980    1.4320 C.3       7 GLP5        0.0000 
     40 CA        -45.9750  -35.0800   -1.4860 C.3       7 GLP5        0.0000 
     41 CA        -46.6160  -34.7560    6.0600 C.3       7 GLP5        0.0000 
     42 CZ        -40.5415  -26.3385   -2.4328 C.ar      8 PHP6        0.0000 
     43 N         -43.2455  -31.7300   -7.2230 N.am      9 SEC1        0.0000 
     44 N         -44.6750  -32.3855   -5.8735 N.am      9 SEC1        0.0000 
     45 O         -44.4715  -28.5315   -3.6345 O.2      10 ALC2        0.0000 
     46 CA        -41.4650  -29.6560   -7.3730 C.3      11 GLC5        0.0000 
     47 CA        -41.3850  -26.5830   -7.3165 C.3      11 GLC5        0.0000 
     48 CA        -41.9745  -27.2220   -4.9545 C.3      11 GLC5        0.0000 
     49 CA        -43.3030  -26.3425   -6.1890 C.3      11 GLC5        0.0000 
     50 CA        -42.0770  -28.2755   -8.5725 C.3      11 GLC5        0.0000 
     51 CA        -40.0665  -29.6420    2.2605 C.3      11 GLC5        0.0000 
     52 CA        -40.1220  -28.5895   -0.3570 C.3      11 GLC5        0.0000 
     53 CA        -39.1360  -30.9510   -4.8495 C.3      11 GLC5        0.0000 
     54 CA        -39.0410  -30.1535   -6.4660 C.3      11 GLC5        0.0000 
     55 CA        -36.9615  -29.7020   -5.3730 C.3      11 GLC5        0.0000 
     56 CA        -39.6620  -27.5110   -4.3240 C.3      11 GLC5        0.0000 
     57 CA        -45.9720  -30.7310    2.4855 C.3      11 GLC5        0.0000 
     58 CA        -43.2985  -33.1330    4.6545 C.3      11 GLC5        0.0000 
     59 CA        -41.4390  -33.8900    4.3365 C.3      11 GLC5        0.0000 
     60 CA        -42.1630  -31.9340    3.2290 C.3      11 GLC5        0.0000 
     61 CA        -40.0985  -33.8145    2.8500 C.3      11 GLC5        0.0000 
     62 CA        -45.5575  -31.6360    3.9620 C.3      11 GLC5        0.0000 
     63 CA        -47.9357  -29.0183   -6.2210 C.3      11 GLC5        0.0000 
     64 CA        -44.4980  -26.0222   -9.4297 C.3      11 GLC5        0.0000 
     65 CA        -43.1008  -28.1893   -9.0500 C.3      11 GLC5        0.0000 
     66 CA        -45.2515  -30.5108    0.5122 C.3      11 GLC5        0.0000 
     67 CA        -38.5615  -31.5149   -0.7459 C.3      11 GLC5        0.0000 
     68 CA        -40.2206  -31.4392   -4.0605 C.3      11 GLC5        0.0000 
     69 CA        -47.8693  -32.9852    1.4817 C.3      11 GLC5        0.0000 
     70 CA        -45.7044  -33.8095   -0.1303 C.3      11 GLC5        0.0000 
     71 CA        -46.2007  -33.9041    4.3769 C.3      11 GLC5        0.0000 
     72 CZ        -40.5970  -28.2125   -2.4417 C.ar     12 PHC6        0.0000 
@<TRIPOS>BOND
@<TRIPOS>SUBSTRUCTURE
     1 SEL1        1 GROUP        1 Z    SEL  0     ROOT SEL Z 0
     2 ALL2        2 GROUP        1 Z    ALL  0     **** ALL Z 1
     3 GLL5        3 GROUP        1 Z    GLL  0     **** GLL Z 4
     4 PHL6       14 GROUP        1 Z    PHL  0     **** PHL Z 6
     5 SEP1       15 GROUP        1 Z    SEP  0     **** SEP Z 7
     6 ALP2       17 GROUP        1 Z    ALP  0     **** ALP Z 8
     7 GLP5       18 GROUP        1 Z    GLP  0     **** GLP Z 11
     8 PHP6       42 GROUP        1 Z    PHP  0     **** PHP Z 13
     9 SEC1       43 GROUP        1 Z    SEC  0     **** SEC Z 14
    10 ALC2       45 GROUP        1 Z    ALC  0     **** ALC Z 15
    11 GLC5       46 GROUP        1 Z    GLC  0     **** GLC Z 18
    12 PHC6       72 GROUP        1 Z    PHC  0     **** PHC Z 20
@<TRIPOS>SET

