2y7p_SAL_1_ligand
  -OEChem-08111718373D

 15 15  0     0  0  0  0  0  0999 V2000
   12.4180   46.7276    0.1358 H   0  0  0  0  0  0  0  0  0  0  0  0
   11.1248   45.3616    1.5679 H   0  0  0  0  0  0  0  0  0  0  0  0
   14.0882   48.2433    0.9627 H   0  0  0  0  0  0  0  0  0  0  0  0
   11.5133   45.4429    3.9543 H   0  0  0  0  0  0  0  0  0  0  0  0
   13.8740   47.6167    5.5908 H   0  0  0  0  0  0  0  0  0  0  0  0
   12.5750   46.7800    1.1220 C   0  0  0  0  0  0  0  0  0  0  0  0
   11.8180   45.9740    1.9480 C   0  0  0  0  0  0  0  0  0  0  0  0
   13.5620   47.6770    1.5970 C   0  0  0  0  0  0  0  0  0  0  0  0
   12.0430   46.0320    3.3440 C   0  0  0  0  0  0  0  0  0  0  0  0
   13.7830   47.7510    2.9810 C   0  0  0  0  0  0  0  0  0  0  0  0
   12.9860   46.8930    3.8750 C   0  0  0  0  0  0  0  0  0  0  0  0
   14.8160   48.6310    3.5540 C   0  0  0  0  0  0  0  0  0  0  0  0
   14.9820   48.6050    4.7950 O   0  5  0  0  0  0  0  0  0  0  0  0
   15.5390   49.3720    2.8170 O   0  0  0  0  0  0  0  0  0  0  0  0
   13.1930   46.9800    5.2290 O   0  0  0  0  0  0  0  0  0  0  0  0
  1  6  1  0  0  0  0
  2  7  1  0  0  0  0
  3  8  1  0  0  0  0
  4  9  1  0  0  0  0
  5 15  1  0  0  0  0
  6  7  1  0  0  0  0
  6  8  2  0  0  0  0
  7  9  2  0  0  0  0
  8 10  1  0  0  0  0
  9 11  1  0  0  0  0
 10 11  2  0  0  0  0
 10 12  1  0  0  0  0
 11 15  1  0  0  0  0
 12 13  1  0  0  0  0
 12 14  2  0  0  0  0
M  CHG  1  13  -1
M  END
> <scpdb_id>
2y7p_1

$$$$
