#    Name: 15347
#    Modification time : Tue Aug  8 22:46:38 2017

@<TRIPOS>MOLECULE
15347
   84     0     9     0     0
SMALL
NO_CHARGES


@<TRIPOS>ATOM
      1 N           3.7340   24.4790    4.7060 N.am      1 SEL1        0.0000 
      2 O           1.9340   25.8520    4.6770 O.2       2 ALL2        0.0000 
      3 CA          4.4960   29.9010    6.3800 C.3       3 GLL5        0.0000 
      4 CA          6.0420   28.8460    5.2560 C.3       3 GLL5        0.0000 
      5 CA          2.2600   28.3290    4.9030 C.3       3 GLL5        0.0000 
      6 CA          1.6350   29.6370    4.9550 C.3       3 GLL5        0.0000 
      7 CA         -0.6400   28.6270    4.7170 C.3       3 GLL5        0.0000 
      8 CA         -0.0610   27.3060    4.6500 C.3       3 GLL5        0.0000 
      9 CA          1.3690   27.1430    4.7380 C.3       3 GLL5        0.0000 
     10 CA         -1.8550   31.5670    4.9150 C.3       3 GLL5        0.0000 
     11 CA          0.5070   32.4560    4.7940 C.3       3 GLL5        0.0000 
     12 CA         -3.6400   31.7120    5.9470 C.3       3 GLL5        0.0000 
     13 CA         -2.5160   30.1680    6.6510 C.3       3 GLL5        0.0000 
     14 CA         -1.9250   32.0570    7.2650 C.3       3 GLL5        0.0000 
     15 CA          0.4080   34.3030    4.1280 C.3       3 GLL5        0.0000 
     16 CA          0.1470   32.8420    2.5910 C.3       3 GLL5        0.0000 
     17 CA          4.6510   30.2950    4.2880 C.3       3 GLL5        0.0000 
     18 CA          1.9790   33.1860    3.4670 C.3       3 GLL5        0.0000 
     19 N           1.7310   22.4730    5.2660 N.am      4 SEP1        0.0000 
     20 N           5.0920   22.3650    3.9020 N.am      4 SEP1        0.0000 
     21 O           0.3100   24.1480    5.7480 O.2       5 ALP2        0.0000 
     22 CA          2.6760   31.6480    8.6100 C.3       6 GLP5        0.0000 
     23 CA          8.1440   27.7600    2.3640 C.3       6 GLP5        0.0000 
     24 CA          3.8160   26.6150    8.4890 C.3       6 GLP5        0.0000 
     25 CA         -1.5140   29.6150    0.6730 C.3       6 GLP5        0.0000 
     26 CA         -0.9350   23.6690    2.7220 C.3       6 GLP5        0.0000 
     27 CA          0.2510   24.0720    1.8300 C.3       6 GLP5        0.0000 
     28 CA         -0.3730   35.3730    6.7420 C.3       6 GLP5        0.0000 
     29 CA          1.2680   32.6360    8.7900 C.3       6 GLP5        0.0000 
     30 CA         -6.1390   30.3440    3.0890 C.3       6 GLP5        0.0000 
     31 CA         -6.0900   34.5600    5.4500 C.3       6 GLP5        0.0000 
     32 CA         -6.0740   29.2730    8.0430 C.3       6 GLP5        0.0000 
     33 CA         -0.5350   27.8000    8.6660 C.3       6 GLP5        0.0000 
     34 CA         -4.0440   28.3800    9.6860 C.3       6 GLP5        0.0000 
     35 CA         -0.1000   28.9300    9.3870 C.3       6 GLP5        0.0000 
     36 CA         -3.7220   34.1990    9.9350 C.3       6 GLP5        0.0000 
     37 CA         -1.7560   35.8190    6.4520 C.3       6 GLP5        0.0000 
     38 CA         -1.7580   34.2120    0.1450 C.3       6 GLP5        0.0000 
     39 CA          0.2660   36.8680    1.8260 C.3       6 GLP5        0.0000 
     40 CA          7.5610   30.4000    8.0810 C.3       6 GLP5        0.0000 
     41 CA          4.5360   28.3350    1.2530 C.3       6 GLP5        0.0000 
     42 CA          8.1090   31.2170    3.5190 C.3       6 GLP5        0.0000 
     43 CA          6.1000   33.0190    6.4900 C.3       6 GLP5        0.0000 
     44 CA          0.6730   28.4110    0.5680 C.3       6 GLP5        0.0000 
     45 CA          0.8310   37.2530    3.0450 C.3       6 GLP5        0.0000 
     46 CA          4.7070   34.1920    4.8370 C.3       6 GLP5        0.0000 
     47 CA          0.5630   30.8540    0.0610 C.3       6 GLP5        0.0000 
     48 CA          2.9420   34.5110    0.5820 C.3       6 GLP5        0.0000 
     49 N           2.7325   23.4760    4.9860 N.am      7 SEC1        0.0000 
     50 N           4.4130   23.4220    4.3040 N.am      7 SEC1        0.0000 
     51 O           1.1220   25.0000    5.2125 O.2       8 ALC2        0.0000 
     52 CA          3.5860   30.7745    7.4950 C.3       9 GLC5        0.0000 
     53 CA          7.0930   28.3030    3.8100 C.3       9 GLC5        0.0000 
     54 CA          3.0380   27.4720    6.6960 C.3       9 GLC5        0.0000 
     55 CA          2.1555   30.6425    6.7825 C.3       9 GLC5        0.0000 
     56 CA         -1.0770   29.1210    2.6950 C.3       9 GLC5        0.0000 
     57 CA         -0.4980   25.4875    3.6860 C.3       9 GLC5        0.0000 
     58 CA          0.8100   25.6075    3.2840 C.3       9 GLC5        0.0000 
     59 CA         -1.1140   33.4700    5.8285 C.3       9 GLC5        0.0000 
     60 CA          0.8875   32.5460    6.7920 C.3       9 GLC5        0.0000 
     61 CA         -4.8895   31.0280    4.5180 C.3       9 GLC5        0.0000 
     62 CA         -4.8650   33.1360    5.6985 C.3       9 GLC5        0.0000 
     63 CA         -4.8570   30.4925    6.9950 C.3       9 GLC5        0.0000 
     64 CA         -1.5255   28.9840    7.6585 C.3       9 GLC5        0.0000 
     65 CA         -3.2800   29.2740    8.1685 C.3       9 GLC5        0.0000 
     66 CA         -1.0125   30.4935    8.3260 C.3       9 GLC5        0.0000 
     67 CA         -0.3285   32.3465    8.0275 C.3       9 GLC5        0.0000 
     68 CA         -1.1490   33.7150    7.0035 C.3       9 GLC5        0.0000 
     69 CA         -2.8235   33.1280    8.6000 C.3       9 GLC5        0.0000 
     70 CA         -0.6740   35.0610    5.2900 C.3       9 GLC5        0.0000 
     71 CA         -0.8055   33.5270    1.3680 C.3       9 GLC5        0.0000 
     72 CA          0.2065   34.8550    2.2085 C.3       9 GLC5        0.0000 
     73 CA          4.2220   28.1137    7.1393 C.3       9 GLC5        0.0000 
     74 CA          6.4480   29.8146    6.8019 C.3       9 GLC5        0.0000 
     75 CA          4.7810   29.0125    3.0054 C.3       9 GLC5        0.0000 
     76 CA          6.5675   30.4535    4.1384 C.3       9 GLC5        0.0000 
     77 CA          5.5465   31.3906    5.6977 C.3       9 GLC5        0.0000 
     78 CA          0.6635   27.8178    2.6310 C.3       9 GLC5        0.0000 
     79 CA          0.1318   34.0768    5.5062 C.3       9 GLC5        0.0000 
     80 CA          1.6900   35.1512    3.0720 C.3       9 GLC5        0.0000 
     81 CA          0.5677   35.3822    3.1865 C.3       9 GLC5        0.0000 
     82 CA          2.9950   33.8185    4.2696 C.3       9 GLC5        0.0000 
     83 CA          0.6614   31.9239    1.5800 C.3       9 GLC5        0.0000 
     84 CA          1.8509   33.7524    1.8405 C.3       9 GLC5        0.0000 
@<TRIPOS>BOND
@<TRIPOS>SUBSTRUCTURE
     1 SEL1        1 GROUP        1 Z    SEL  0     ROOT SEL Z 0
     2 ALL2        2 GROUP        1 Z    ALL  0     **** ALL Z 1
     3 GLL5        3 GROUP        1 Z    GLL  0     **** GLL Z 4
     4 SEP1       19 GROUP        1 Z    SEP  0     **** SEP Z 7
     5 ALP2       21 GROUP        1 Z    ALP  0     **** ALP Z 8
     6 GLP5       22 GROUP        1 Z    GLP  0     **** GLP Z 11
     7 SEC1       49 GROUP        1 Z    SEC  0     **** SEC Z 14
     8 ALC2       51 GROUP        1 Z    ALC  0     **** ALC Z 15
     9 GLC5       52 GROUP        1 Z    GLC  0     **** GLC Z 18
@<TRIPOS>SET

