2hvc_LGD_1_ligand
  -OEChem-08111718373D

 35 36  0     1  0  0  0  0  0999 V2000
   -0.6507   26.5055    4.5428 H   0  0  0  0  0  0  0  0  0  0  0  0
   -1.6334   28.7264    4.6600 H   0  0  0  0  0  0  0  0  0  0  0  0
    2.2225   30.4399    5.0559 H   0  0  0  0  0  0  0  0  0  0  0  0
    5.2148   26.5734    4.9959 H   0  0  0  0  0  0  0  0  0  0  0  0
   -2.3087   30.9598    4.2627 H   0  0  0  0  0  0  0  0  0  0  0  0
   -2.0011   32.5180    4.6424 H   0  0  0  0  0  0  0  0  0  0  0  0
    1.3991   32.1601    5.1356 H   0  0  0  0  0  0  0  0  0  0  0  0
    0.1174   33.1311    5.4204 H   0  0  0  0  0  0  0  0  0  0  0  0
    1.3254   25.0662    4.5669 H   0  0  0  0  0  0  0  0  0  0  0  0
   -0.0610   27.3060    4.6500 C   0  0  0  0  0  0  0  0  0  0  0  0
   -0.6400   28.6270    4.7170 C   0  0  0  0  0  0  0  0  0  0  0  0
    1.6350   29.6370    4.9550 C   0  0  0  0  0  0  0  0  0  0  0  0
    4.2310   26.7400    4.9300 C   0  0  0  0  0  0  0  0  0  0  0  0
    2.2600   28.3290    4.9030 C   0  0  0  0  0  0  0  0  0  0  0  0
    3.7160   28.1130    5.0010 C   0  0  0  0  0  0  0  0  0  0  0  0
    1.3690   27.1430    4.7380 C   0  0  0  0  0  0  0  0  0  0  0  0
    0.1990   29.8400    4.8680 C   0  0  0  0  0  0  0  0  0  0  0  0
    3.3210   25.6260    4.7650 C   0  0  0  0  0  0  0  0  0  0  0  0
   -1.8550   31.5670    4.9150 C   0  0  1  0  0  0  0  0  0  0  0  0
    0.5070   32.4560    4.7940 C   0  0  1  0  0  0  0  0  0  0  0  0
    4.7600   29.3240    5.1990 C   0  0  1  0  0  0  0  0  0  0  0  0
   -2.3970   31.3550    6.2240 C   0  0  1  0  0  0  0  0  0  0  0  0
    0.7660   33.1050    3.7470 C   0  0  1  0  0  0  0  0  0  0  0  0
    1.9340   25.8520    4.6770 N   0  0  0  0  0  0  0  0  0  0  0  0
   -0.3620   31.2670    4.9370 N   0  0  0  0  0  0  0  0  0  0  0  0
    3.7340   24.4790    4.7060 O   0  0  0  0  0  0  0  0  0  0  0  0
    4.4960   29.9010    6.3800 F   0  0  0  0  0  0  0  0  0  0  0  0
    6.0420   28.8460    5.2560 F   0  0  0  0  0  0  0  0  0  0  0  0
    4.6510   30.2950    4.2880 F   0  0  0  0  0  0  0  0  0  0  0  0
   -3.6400   31.7120    5.9470 F   0  0  0  0  0  0  0  0  0  0  0  0
   -2.5160   30.1680    6.6510 F   0  0  0  0  0  0  0  0  0  0  0  0
   -1.9250   32.0570    7.2650 F   0  0  0  0  0  0  0  0  0  0  0  0
    0.4080   34.3030    4.1280 F   0  0  0  0  0  0  0  0  0  0  0  0
    1.9790   33.1860    3.4670 F   0  0  0  0  0  0  0  0  0  0  0  0
    0.1470   32.8420    2.5910 F   0  0  0  0  0  0  0  0  0  0  0  0
  1 10  1  0  0  0  0
  2 11  1  0  0  0  0
  3 12  1  0  0  0  0
  4 13  1  0  0  0  0
  5 19  1  0  0  0  0
  6 19  1  0  0  0  0
  7 20  1  0  0  0  0
  8 20  1  0  0  0  0
  9 24  1  0  0  0  0
 10 11  1  0  0  0  0
 10 16  2  0  0  0  0
 11 17  2  0  0  0  0
 12 14  2  0  0  0  0
 12 17  1  0  0  0  0
 13 15  2  0  0  0  0
 13 18  1  0  0  0  0
 14 15  1  0  0  0  0
 14 16  1  0  0  0  0
 15 21  1  0  0  0  0
 16 24  1  0  0  0  0
 17 25  1  0  0  0  0
 18 24  1  0  0  0  0
 18 26  2  0  0  0  0
 19 22  1  0  0  0  0
 19 25  1  0  0  0  0
 20 23  1  0  0  0  0
 20 25  1  0  0  0  0
 21 27  1  0  0  0  0
 21 28  1  0  0  0  0
 21 29  1  0  0  0  0
 22 30  1  0  0  0  0
 22 31  1  0  0  0  0
 22 32  1  0  0  0  0
 23 33  1  0  0  0  0
 23 34  1  0  0  0  0
 23 35  1  0  0  0  0
M  END
> <scpdb_id>
2hvc_1

$$$$
