3gn7_3GN_1_ligand
  -OEChem-08111718373D

 35 37  0     1  0  0  0  0  0999 V2000
   30.0225   65.0587   10.6250 H   0  0  0  0  0  0  0  0  0  0  0  0
   28.5666   66.6107   11.6214 H   0  0  0  0  0  0  0  0  0  0  0  0
   29.3197   63.7047    8.7758 H   0  0  0  0  0  0  0  0  0  0  0  0
   24.6815   66.1949    4.7065 H   0  0  0  0  0  0  0  0  0  0  0  0
   23.5439   65.1823    4.1174 H   0  0  0  0  0  0  0  0  0  0  0  0
   24.6719   63.4585    4.8665 H   0  0  0  0  0  0  0  0  0  0  0  0
   25.8318   64.4687    5.4150 H   0  0  0  0  0  0  0  0  0  0  0  0
   23.4158   66.7316    6.4371 H   0  0  0  0  0  0  0  0  0  0  0  0
   22.1873   65.9801    5.6673 H   0  0  0  0  0  0  0  0  0  0  0  0
   23.4036   62.2707    6.3507 H   0  0  0  0  0  0  0  0  0  0  0  0
   24.9254   61.9999    6.8773 H   0  0  0  0  0  0  0  0  0  0  0  0
   23.7477   62.3783    7.9434 H   0  0  0  0  0  0  0  0  0  0  0  0
   27.0400   63.2353    7.1763 H   0  0  0  0  0  0  0  0  0  0  0  0
   24.0537   67.5946   11.2710 H   0  0  0  0  0  0  0  0  0  0  0  0
   24.4264   66.2424   10.2548 H   0  0  0  0  0  0  0  0  0  0  0  0
   23.1321   65.1630    7.9426 H   0  0  0  0  0  0  0  0  0  0  0  0
   29.0900   65.1440   10.2740 C   0  0  0  0  0  0  0  0  0  0  0  0
   28.2340   66.0460   10.8660 C   0  0  0  0  0  0  0  0  0  0  0  0
   28.7020   64.3570    9.2150 C   0  0  0  0  0  0  0  0  0  0  0  0
   26.9340   66.1890   10.4440 C   0  0  0  0  0  0  0  0  0  0  0  0
   26.5090   65.4040    9.3900 C   0  0  0  0  0  0  0  0  0  0  0  0
   27.4010   64.5340    8.8050 C   0  0  0  0  0  0  0  0  0  0  0  0
   25.4300   64.4350    7.8210 C   0  0  0  0  0  0  0  0  0  0  0  0
   26.0620   67.1560   11.1150 C   0  0  0  0  0  0  0  0  0  0  0  0
   24.0620   65.4430    4.9320 C   0  0  1  0  0  0  0  0  0  0  0  0
   24.8540   64.2600    5.4360 C   0  0  1  0  0  0  0  0  0  0  0  0
   23.1140   65.8710    6.0270 C   0  0  1  0  0  0  0  0  0  0  0  0
   24.4130   63.9970    6.8530 C   0  0  1  0  0  0  0  0  0  0  0  0
   24.0960   62.5400    7.0200 C   0  0  0  0  0  0  0  0  0  0  0  0
   25.2860   65.3350    8.7730 N   0  0  0  0  0  0  0  0  0  0  0  0
   26.6920   63.9290    7.8070 N   0  0  0  0  0  0  0  0  0  0  0  0
   24.7270   66.9820   10.8570 N   0  0  0  0  0  0  0  0  0  0  0  0
   23.1610   64.7760    7.0210 N   0  3  1  0  0  0  0  0  0  0  0  0
   26.5500   68.0350   11.8080 O   0  0  0  0  0  0  0  0  0  0  0  0
   22.3745   64.1729    6.8878 H   0  0  0  0  0  0  0  0  0  0  0  0
  1 17  1  0  0  0  0
  2 18  1  0  0  0  0
  3 19  1  0  0  0  0
  4 25  1  0  0  0  0
  5 25  1  0  0  0  0
  6 26  1  0  0  0  0
  7 26  1  0  0  0  0
  8 27  1  0  0  0  0
  9 27  1  0  0  0  0
 10 29  1  0  0  0  0
 11 29  1  0  0  0  0
 12 29  1  0  0  0  0
 13 31  1  0  0  0  0
 14 32  1  0  0  0  0
 15 32  1  0  0  0  0
 16 33  1  0  0  0  0
 17 18  2  0  0  0  0
 17 19  1  0  0  0  0
 18 20  1  0  0  0  0
 19 22  2  0  0  0  0
 20 21  2  0  0  0  0
 20 24  1  0  0  0  0
 21 22  1  0  0  0  0
 21 30  1  0  0  0  0
 22 31  1  0  0  0  0
 23 28  1  0  0  0  0
 23 30  2  0  0  0  0
 23 31  1  0  0  0  0
 24 32  1  0  0  0  0
 24 34  2  0  0  0  0
 25 26  1  0  0  0  0
 25 27  1  0  0  0  0
 26 28  1  0  0  0  0
 27 33  1  0  0  0  0
 28 29  1  0  0  0  0
 28 33  1  0  0  0  0
 33 35  1  0  0  0  0
M  CHG  1  33   1
M  END
> <scpdb_id>
3gn7_1

$$$$
