1in5_ADP_1_ligand
  -OEChem-08111718373D

 39 41  0     1  0  0  0  0  0999 V2000
   58.9101  -28.8077  -25.7236 H   0  0  0  0  0  0  0  0  0  0  0  0
   62.9084  -23.8404  -25.1514 H   0  0  0  0  0  0  0  0  0  0  0  0
   63.6059  -24.1409  -29.3237 H   0  0  0  0  0  0  0  0  0  0  0  0
   62.0052  -24.6359  -28.1135 H   0  0  0  0  0  0  0  0  0  0  0  0
   65.5997  -25.7448  -28.2879 H   0  0  0  0  0  0  0  0  0  0  0  0
   62.8405  -27.0210  -26.9593 H   0  0  0  0  0  0  0  0  0  0  0  0
   65.6626  -24.2665  -26.4533 H   0  0  0  0  0  0  0  0  0  0  0  0
   66.0722  -23.7100  -27.9329 H   0  0  0  0  0  0  0  0  0  0  0  0
   57.8764  -25.8399  -22.3709 H   0  0  0  0  0  0  0  0  0  0  0  0
   59.1019  -24.6170  -22.4257 H   0  0  0  0  0  0  0  0  0  0  0  0
   63.2490  -26.4568  -30.2015 H   0  0  0  0  0  0  0  0  0  0  0  0
   61.3771  -26.9024  -29.3467 H   0  0  0  0  0  0  0  0  0  0  0  0
   59.3350  -27.9650  -25.3930 C   0  0  0  0  0  0  0  0  0  0  0  0
   62.1840  -24.5250  -25.0700 C   0  0  0  0  0  0  0  0  0  0  0  0
   60.5110  -25.5600  -24.4420 C   0  0  0  0  0  0  0  0  0  0  0  0
   61.0090  -26.3080  -25.5230 C   0  0  0  0  0  0  0  0  0  0  0  0
   59.2940  -26.0990  -23.8260 C   0  0  0  0  0  0  0  0  0  0  0  0
   63.6700  -25.0440  -28.8990 C   0  0  1  0  0  0  0  0  0  0  0  0
   62.4420  -25.5010  -28.3600 C   0  0  2  0  0  0  0  0  0  0  0  0
   64.8610  -25.1800  -27.9200 C   0  0  1  0  0  0  0  0  0  0  0  0
   62.9230  -26.0250  -26.9250 C   0  0  2  0  0  0  0  0  0  0  0  0
   65.3150  -24.0200  -27.3580 C   0  0  1  0  0  0  0  0  0  0  0  0
   60.4810  -27.5240  -26.0280 N   0  0  0  0  0  0  0  0  0  0  0  0
   58.7340  -27.3060  -24.3180 N   0  0  0  0  0  0  0  0  0  0  0  0
   61.2750  -24.4480  -24.2130 N   0  0  0  0  0  0  0  0  0  0  0  0
   62.1080  -25.6180  -25.8850 N   0  0  0  0  0  0  0  0  0  0  0  0
   58.7060  -25.4630  -22.7830 N   0  0  0  0  0  0  0  0  0  0  0  0
   65.4720  -18.3330  -26.7530 O   0  5  0  0  0  0  0  0  0  0  0  0
   67.4440  -19.5920  -25.8300 O   0  5  0  0  0  0  0  0  0  0  0  0
   65.2710  -21.0810  -28.6470 O   0  5  0  0  0  0  0  0  0  0  0  0
   65.4660  -19.1620  -24.3510 O   0  0  0  0  0  0  0  0  0  0  0  0
   63.1200  -20.8090  -27.4680 O   0  0  0  0  0  0  0  0  0  0  0  0
   64.2120  -25.7770  -26.8720 O   0  0  0  0  0  0  0  0  0  0  0  0
   64.0600  -26.0460  -29.7850 O   0  0  0  0  0  0  0  0  0  0  0  0
   61.6030  -25.9350  -29.4610 O   0  0  0  0  0  0  0  0  0  0  0  0
   64.4950  -22.9140  -27.1690 O   0  0  0  0  0  0  0  0  0  0  0  0
   65.3890  -20.7870  -26.1740 O   0  0  0  0  0  0  0  0  0  0  0  0
   65.9050  -19.4100  -25.7360 P   0  0  0  0  0  0  0  0  0  0  0  0
   64.5030  -21.3590  -27.4350 P   0  0  1  0  0  0  0  0  0  0  0  0
  1 13  1  0  0  0  0
  2 14  1  0  0  0  0
  3 18  1  0  0  0  0
  4 19  1  0  0  0  0
  5 20  1  0  0  0  0
  6 21  1  0  0  0  0
  7 22  1  0  0  0  0
  8 22  1  0  0  0  0
  9 27  1  0  0  0  0
 10 27  1  0  0  0  0
 11 34  1  0  0  0  0
 12 35  1  0  0  0  0
 13 23  1  0  0  0  0
 13 24  2  0  0  0  0
 14 25  2  0  0  0  0
 14 26  1  0  0  0  0
 15 16  1  0  0  0  0
 15 17  2  0  0  0  0
 15 25  1  0  0  0  0
 16 23  2  0  0  0  0
 16 26  1  0  0  0  0
 17 24  1  0  0  0  0
 17 27  1  0  0  0  0
 18 19  1  0  0  0  0
 18 20  1  0  0  0  0
 18 34  1  0  0  0  0
 19 21  1  0  0  0  0
 19 35  1  0  0  0  0
 20 22  1  0  0  0  0
 20 33  1  0  0  0  0
 21 26  1  0  0  0  0
 21 33  1  0  0  0  0
 22 36  1  0  0  0  0
 28 38  1  0  0  0  0
 29 38  1  0  0  0  0
 30 39  1  0  0  0  0
 31 38  2  0  0  0  0
 32 39  2  0  0  0  0
 36 39  1  0  0  0  0
 37 38  1  0  0  0  0
 37 39  1  0  0  0  0
M  CHG  3  28  -1  29  -1  30  -1
M  END
> <scpdb_id>
1in5_1

$$$$
