#    Name: 16035
#    Modification time : Tue Aug  8 20:24:55 2017

@<TRIPOS>MOLECULE
16035
   63     0    12     0     0
SMALL
NO_CHARGES


@<TRIPOS>ATOM
      1 N           7.3960   30.8700  -25.7850 N.am      1 SEL1        0.0000 
      2 N           9.1830   32.9440  -28.7140 N.am      1 SEL1        0.0000 
      3 N          11.3960   32.1130  -38.5220 N.am      1 SEL1        0.0000 
      4 N          10.8820   32.1460  -40.6560 N.am      1 SEL1        0.0000 
      5 O           8.4490   32.2910  -24.2200 O.2       2 ALL2        0.0000 
      6 O           8.8370   32.6120  -26.5040 O.2       2 ALL2        0.0000 
      7 O           6.2930   29.4170  -27.3950 O.2       2 ALL2        0.0000 
      8 O           8.9070   32.5330  -37.6760 O.2       2 ALL2        0.0000 
      9 NZ         11.3960   32.1130  -38.5220 N.4       3 LYL3        0.0000 
     10 NZ         10.8820   32.1460  -40.6560 N.4       3 LYL3        0.0000 
     11 CA          6.3080   28.7780  -28.7520 C.3       4 GLL5        0.0000 
     12 CA          6.3830   29.5420  -31.2620 C.3       4 GLL5        0.0000 
     13 CA          7.9040   31.2820  -30.7710 C.3       4 GLL5        0.0000 
     14 CA          7.8300   30.4820  -33.0300 C.3       4 GLL5        0.0000 
     15 CA          7.5730   29.5040  -34.0270 C.3       4 GLL5        0.0000 
     16 CA          8.2730   31.7990  -33.4490 C.3       4 GLL5        0.0000 
     17 CA          8.9820   34.2110  -39.4720 C.3       4 GLL5        0.0000 
     18 CA          8.2190   31.0850  -35.7890 C.3       4 GLL5        0.0000 
     19 N           7.4930   28.5980  -24.3950 N.am      5 SEP1        0.0000 
     20 N           9.4990   35.6870  -29.6290 N.am      5 SEP1        0.0000 
     21 N          11.7590   32.7350  -35.7580 N.am      5 SEP1        0.0000 
     22 N          13.3740   33.1630  -41.2480 N.am      5 SEP1        0.0000 
     23 O           9.8390   34.3560  -23.7920 O.2       6 ALP2        0.0000 
     24 O          10.1830   34.8940  -25.8760 O.2       6 ALP2        0.0000 
     25 O           4.3460   29.3970  -24.7900 O.2       6 ALP2        0.0000 
     26 O           4.4710   27.4570  -25.8220 O.2       6 ALP2        0.0000 
     27 O           9.5180   34.9170  -36.3010 O.2       6 ALP2        0.0000 
     28 NZ         13.3740   33.1630  -41.2480 N.4       7 LYP3        0.0000 
     29 CA          6.9430   25.3540  -27.3930 C.3       8 GLP5        0.0000 
     30 CA          9.8060   27.6730  -31.3860 C.3       8 GLP5        0.0000 
     31 CA         10.7010   34.3420  -32.0120 C.3       8 GLP5        0.0000 
     32 CA          6.5580   34.8500  -29.2010 C.3       8 GLP5        0.0000 
     33 CA         10.9970   29.6870  -30.6950 C.3       8 GLP5        0.0000 
     34 CA         10.4580   28.8670  -31.7010 C.3       8 GLP5        0.0000 
     35 CA          9.7010   27.2980  -30.0510 C.3       8 GLP5        0.0000 
     36 CA          9.2030   26.8170  -32.4710 C.3       8 GLP5        0.0000 
     37 CA         10.7070   36.8540  -37.0290 C.3       8 GLP5        0.0000 
     38 CA          2.8030   29.2430  -31.4550 C.3       8 GLP5        0.0000 
     39 CA         12.0710   30.3550  -35.4360 C.3       8 GLP5        0.0000 
     40 N           7.4445   29.7340  -25.0900 N.am      9 SEC1        0.0000 
     41 N           9.3410   34.3155  -29.1715 N.am      9 SEC1        0.0000 
     42 N          11.5775   32.4240  -37.1400 N.am      9 SEC1        0.0000 
     43 N          12.1280   32.6545  -40.9520 N.am      9 SEC1        0.0000 
     44 O           9.1440   33.3235  -24.0060 O.2      10 ALC2        0.0000 
     45 O           9.3380   33.4840  -25.1480 O.2      10 ALC2        0.0000 
     46 O           9.5100   33.7530  -26.1900 O.2      10 ALC2        0.0000 
     47 O           5.3195   29.4070  -26.0925 O.2      10 ALC2        0.0000 
     48 O           5.3820   28.4370  -26.6085 O.2      10 ALC2        0.0000 
     49 O           9.2125   33.7250  -36.9885 O.2      10 ALC2        0.0000 
     50 NZ         12.3850   32.6380  -39.8850 N.4      11 LYC3        0.0000 
     51 NZ         12.1280   32.6545  -40.9520 N.4      11 LYC3        0.0000 
     52 CA          6.6255   27.0660  -28.0725 C.3      12 GLC5        0.0000 
     53 CA          8.0945   28.6075  -31.3240 C.3      12 GLC5        0.0000 
     54 CA          9.3025   32.8120  -31.3915 C.3      12 GLC5        0.0000 
     55 CA          7.2310   33.0660  -29.9860 C.3      12 GLC5        0.0000 
     56 CA          9.4505   30.4845  -30.7330 C.3      12 GLC5        0.0000 
     57 CA          9.1440   29.6745  -32.3655 C.3      12 GLC5        0.0000 
     58 CA          7.9897   28.3292  -29.6550 C.3      12 GLC5        0.0000 
     59 CA          8.4757   28.4416  -33.1685 C.3      12 GLC5        0.0000 
     60 CA          9.5340   33.1442  -33.0717 C.3      12 GLC5        0.0000 
     61 CA          9.4995   35.6680  -38.1825 C.3      12 GLC5        0.0000 
     62 CA          4.5501   29.3972  -30.6707 C.3      12 GLC5        0.0000 
     63 CA         10.1180   30.6851  -35.4391 C.3      12 GLC5        0.0000 
@<TRIPOS>BOND
@<TRIPOS>SUBSTRUCTURE
     1 SEL1        1 GROUP        1 Z    SEL  0     ROOT SEL Z 0
     2 ALL2        5 GROUP        1 Z    ALL  0     **** ALL Z 1
     3 LYL3        9 GROUP        1 Z    LYL  0     **** LYL Z 2
     4 GLL5       11 GROUP        1 Z    GLL  0     **** GLL Z 4
     5 SEP1       19 GROUP        1 Z    SEP  0     **** SEP Z 7
     6 ALP2       23 GROUP        1 Z    ALP  0     **** ALP Z 8
     7 LYP3       28 GROUP        1 Z    LYP  0     **** LYP Z 9
     8 GLP5       29 GROUP        1 Z    GLP  0     **** GLP Z 11
     9 SEC1       40 GROUP        1 Z    SEC  0     **** SEC Z 14
    10 ALC2       44 GROUP        1 Z    ALC  0     **** ALC Z 15
    11 LYC3       50 GROUP        1 Z    LYC  0     **** LYC Z 16
    12 GLC5       52 GROUP        1 Z    GLC  0     **** GLC Z 18
@<TRIPOS>SET

