2j4d_MHF_1_ligand
  -OEChem-08111718373D

 54 57  0     1  0  0  0  0  0999 V2000
    7.5727   29.0964  -36.0653 H   0  0  0  0  0  0  0  0  0  0  0  0
    8.7621   33.0050  -35.0958 H   0  0  0  0  0  0  0  0  0  0  0  0
    7.2537   28.5954  -33.7579 H   0  0  0  0  0  0  0  0  0  0  0  0
    8.4466   32.5045  -32.7618 H   0  0  0  0  0  0  0  0  0  0  0  0
    7.1468   28.2484  -28.8784 H   0  0  0  0  0  0  0  0  0  0  0  0
    5.5153   28.1786  -28.8636 H   0  0  0  0  0  0  0  0  0  0  0  0
    5.6496   29.9439  -31.8103 H   0  0  0  0  0  0  0  0  0  0  0  0
    6.3745   28.5480  -31.3712 H   0  0  0  0  0  0  0  0  0  0  0  0
    8.8711   31.5329  -30.7297 H   0  0  0  0  0  0  0  0  0  0  0  0
    7.3709   32.0624  -31.0976 H   0  0  0  0  0  0  0  0  0  0  0  0
    5.4011   30.4565  -29.6339 H   0  0  0  0  0  0  0  0  0  0  0  0
    7.5682   35.7088  -39.4921 H   0  0  0  0  0  0  0  0  0  0  0  0
    7.4224   34.6981  -38.2178 H   0  0  0  0  0  0  0  0  0  0  0  0
    9.1730   34.3145  -40.4481 H   0  0  0  0  0  0  0  0  0  0  0  0
    9.6399   34.7488  -38.9448 H   0  0  0  0  0  0  0  0  0  0  0  0
    8.5110   32.1908  -39.6295 H   0  0  0  0  0  0  0  0  0  0  0  0
    9.4528   33.3653  -26.2732 H   0  0  0  0  0  0  0  0  0  0  0  0
    5.6695   29.0699  -26.6945 H   0  0  0  0  0  0  0  0  0  0  0  0
    9.0546   33.0584  -24.0093 H   0  0  0  0  0  0  0  0  0  0  0  0
    8.0018   31.7890  -23.4797 H   0  0  0  0  0  0  0  0  0  0  0  0
    9.0667   33.2768  -37.0270 H   0  0  0  0  0  0  0  0  0  0  0  0
    7.7610   29.7970  -35.3770 C   0  0  0  0  0  0  0  0  0  0  0  0
    8.4610   32.0940  -34.8140 C   0  0  0  0  0  0  0  0  0  0  0  0
    7.5730   29.5040  -34.0270 C   0  0  0  0  0  0  0  0  0  0  0  0
    8.2730   31.7990  -33.4490 C   0  0  0  0  0  0  0  0  0  0  0  0
    8.2190   31.0850  -35.7890 C   0  0  0  0  0  0  0  0  0  0  0  0
    7.8300   30.4820  -33.0300 C   0  0  0  0  0  0  0  0  0  0  0  0
    7.7500   31.2180  -28.1380 C   0  0  0  0  0  0  0  0  0  0  0  0
    7.1400   30.4940  -27.0930 C   0  0  0  0  0  0  0  0  0  0  0  0
    8.6260   32.2970  -27.8180 C   0  0  0  0  0  0  0  0  0  0  0  0
    8.2330   31.9290  -25.5170 C   0  0  0  0  0  0  0  0  0  0  0  0
    8.4570   31.3360  -37.2360 C   0  0  0  0  0  0  0  0  0  0  0  0
    6.5290   33.9810  -39.9350 C   0  0  0  0  0  0  0  0  0  0  0  0
   10.5840   32.2980  -39.4530 C   0  0  0  0  0  0  0  0  0  0  0  0
    6.3080   28.7780  -28.7520 C   0  0  2  0  0  0  0  0  0  0  0  0
    6.3830   29.5420  -31.2620 C   0  0  2  0  0  0  0  0  0  0  0  0
    7.9040   31.2820  -30.7710 C   0  0  1  0  0  0  0  0  0  0  0  0
    6.2490   29.9430  -29.7660 C   0  0  2  0  0  0  0  0  0  0  0  0
    7.6020   34.7530  -39.2000 C   0  0  1  0  0  0  0  0  0  0  0  0
    8.9820   34.2110  -39.4720 C   0  0  1  0  0  0  0  0  0  0  0  0
    9.1600   32.7390  -39.1020 C   0  0  2  0  0  0  0  0  0  0  0  0
    7.3960   30.8700  -25.7850 N   0  0  0  0  0  0  0  0  0  0  0  0
    8.8370   32.6120  -26.5040 N   0  0  0  0  0  0  0  0  0  0  0  0
    6.2930   29.4170  -27.3950 N   0  0  0  0  0  0  0  0  0  0  0  0
    7.7020   30.1100  -31.6340 N   0  0  2  0  0  0  0  0  0  0  0  0
    7.4240   30.8310  -29.4630 N   0  0  3  0  0  0  0  0  0  0  0  0
    8.4490   32.2910  -24.2200 N   0  0  0  0  0  0  0  0  0  0  0  0
    8.9070   32.5330  -37.6760 N   0  0  0  0  0  0  0  0  0  0  0  0
    5.7610   33.2470  -39.2720 O   0  5  0  0  0  0  0  0  0  0  0  0
   10.8820   32.1460  -40.6560 O   0  5  0  0  0  0  0  0  0  0  0  0
    9.1830   32.9440  -28.7140 O   0  0  0  0  0  0  0  0  0  0  0  0
    8.2570   30.4300  -38.0370 O   0  0  0  0  0  0  0  0  0  0  0  0
    6.4680   34.0940  -41.1780 O   0  0  0  0  0  0  0  0  0  0  0  0
   11.3960   32.1130  -38.5220 O   0  0  0  0  0  0  0  0  0  0  0  0
  1 22  1  0  0  0  0
  2 23  1  0  0  0  0
  3 24  1  0  0  0  0
  4 25  1  0  0  0  0
  5 35  1  0  0  0  0
  6 35  1  0  0  0  0
  7 36  1  0  0  0  0
  8 36  1  0  0  0  0
  9 37  1  0  0  0  0
 10 37  1  0  0  0  0
 11 38  1  0  0  0  0
 12 39  1  0  0  0  0
 13 39  1  0  0  0  0
 14 40  1  0  0  0  0
 15 40  1  0  0  0  0
 16 41  1  0  0  0  0
 17 43  1  0  0  0  0
 18 44  1  0  0  0  0
 19 47  1  0  0  0  0
 20 47  1  0  0  0  0
 21 48  1  0  0  0  0
 22 24  1  0  0  0  0
 22 26  2  0  0  0  0
 23 25  2  0  0  0  0
 23 26  1  0  0  0  0
 24 27  2  0  0  0  0
 25 27  1  0  0  0  0
 26 32  1  0  0  0  0
 27 45  1  0  0  0  0
 28 29  2  0  0  0  0
 28 30  1  0  0  0  0
 28 46  1  0  0  0  0
 29 42  1  0  0  0  0
 29 44  1  0  0  0  0
 30 43  1  0  0  0  0
 30 51  2  0  0  0  0
 31 42  2  0  0  0  0
 31 43  1  0  0  0  0
 31 47  1  0  0  0  0
 32 48  1  0  0  0  0
 32 52  2  0  0  0  0
 33 39  1  0  0  0  0
 33 49  1  0  0  0  0
 33 53  2  0  0  0  0
 34 41  1  0  0  0  0
 34 50  1  0  0  0  0
 34 54  2  0  0  0  0
 35 38  1  0  0  0  0
 35 44  1  0  0  0  0
 36 38  1  0  0  0  0
 36 45  1  0  0  0  0
 37 45  1  0  0  0  0
 37 46  1  0  0  0  0
 38 46  1  0  0  0  0
 39 40  1  0  0  0  0
 40 41  1  0  0  0  0
 41 48  1  0  0  0  0
M  CHG  2  49  -1  50  -1
M  END
> <scpdb_id>
2j4d_1

$$$$
