1qqb_HPA_1_ligand
  -OEChem-08111718373D

 14 15  0     0  0  0  0  0  0999 V2000
   58.8081    7.7621  -11.1179 H   0  0  0  0  0  0  0  0  0  0  0  0
   58.0967    1.7800   -9.3465 H   0  0  0  0  0  0  0  0  0  0  0  0
   59.6097    6.2937   -9.2242 H   0  0  0  0  0  0  0  0  0  0  0  0
   56.7550    1.7937  -11.2108 H   0  0  0  0  0  0  0  0  0  0  0  0
   58.5390    6.8070  -10.9940 C   0  0  0  0  0  0  0  0  0  0  0  0
   58.0020    2.6440   -9.8410 C   0  0  0  0  0  0  0  0  0  0  0  0
   57.6620    4.8900  -11.2880 C   0  0  0  0  0  0  0  0  0  0  0  0
   58.4550    4.7710  -10.1660 C   0  0  0  0  0  0  0  0  0  0  0  0
   56.9450    3.7610  -11.7530 C   0  0  0  0  0  0  0  0  0  0  0  0
   57.7170    6.1850  -11.7880 N   0  0  0  0  0  0  0  0  0  0  0  0
   58.6620    3.6920   -9.3740 N   0  0  0  0  0  0  0  0  0  0  0  0
   59.0000    6.0170   -9.9670 N   0  0  0  0  0  0  0  0  0  0  0  0
   57.1960    2.6540  -10.9550 N   0  0  0  0  0  0  0  0  0  0  0  0
   56.1620    3.6490  -12.7090 O   0  0  0  0  0  0  0  0  0  0  0  0
  1  5  1  0  0  0  0
  2  6  1  0  0  0  0
  3 12  1  0  0  0  0
  4 13  1  0  0  0  0
  5 10  2  0  0  0  0
  5 12  1  0  0  0  0
  6 11  2  0  0  0  0
  6 13  1  0  0  0  0
  7  8  2  0  0  0  0
  7  9  1  0  0  0  0
  7 10  1  0  0  0  0
  8 11  1  0  0  0  0
  8 12  1  0  0  0  0
  9 13  1  0  0  0  0
  9 14  2  0  0  0  0
M  END
> <scpdb_id>
1qqb_1

$$$$
