@<TRIPOS>MOLECULE
1qqb_HPA_1_ligand
   14    15     1     0     0
SMALL
NO_CHARGES


@<TRIPOS>ATOM
     1 N1          57.1960     2.6540   -10.9550 N.pl3        1 HPA599   0.0000
     2 C2          58.0020     2.6440    -9.8410 C.2          1 HPA599   0.0000
     3 N3          58.6620     3.6920    -9.3740 N.2          1 HPA599   0.0000
     4 C4          58.4550     4.7710   -10.1660 C.2          1 HPA599   0.0000
     5 C5          57.6620     4.8900   -11.2880 C.2          1 HPA599   0.0000
     6 C6          56.9450     3.7610   -11.7530 C.2          1 HPA599   0.0000
     7 O6          56.1620     3.6490   -12.7090 O.2          1 HPA599   0.0000
     8 N7          57.7170     6.1850   -11.7880 N.2          1 HPA599   0.0000
     9 C8          58.5390     6.8070   -10.9940 C.2          1 HPA599   0.0000
    10 N9          59.0000     6.0170    -9.9670 N.pl3        1 HPA599   0.0000
    11 H1          56.7550     1.7937   -11.2108 H            1 HPA599   0.0000
    12 H2          58.0967     1.7800    -9.3465 H            1 HPA599   0.0000
    13 H3          58.8081     7.7621   -11.1179 H            1 HPA599   0.0000
    14 H4          59.6097     6.2937    -9.2242 H            1 HPA599   0.0000
@<TRIPOS>BOND
     1    1    2       1
     2    1    6       1
     3    2    3       2
     4    3    4       1
     5    4    5       2
     6    4   10       1
     7    5    6       1
     8    5    8       1
     9    6    7       2
    10    8    9       2
    11    9   10       1
    12    1   11       1
    13    2   12       1
    14    9   13       1
    15   10   14       1
@<TRIPOS>SUBSTRUCTURE
     1 HPA599      1 GROUP             4 A     HPA     0 **** HPA A 599
