3d70_IMD_1_ligand
  -OEChem-08111718373D

  9  9  0     0  0  0  0  0  0999 V2000
  -30.4428   99.4301  -46.7416 H   0  0  0  0  0  0  0  0  0  0  0  0
  -32.6544  100.6750  -47.3209 H   0  0  0  0  0  0  0  0  0  0  0  0
  -29.4856  102.8299  -48.8268 H   0  0  0  0  0  0  0  0  0  0  0  0
  -31.9684  102.8090  -48.6408 H   0  0  0  0  0  0  0  0  0  0  0  0
  -30.5220  100.2900  -47.2460 C   0  0  0  0  0  0  0  0  0  0  0  0
  -31.7260  100.9610  -47.5580 C   0  0  0  0  0  0  0  0  0  0  0  0
  -30.0200  102.1200  -48.3680 C   0  0  0  0  0  0  0  0  0  0  0  0
  -29.4860  101.0200  -47.7530 N   0  0  0  0  0  0  0  0  0  0  0  0
  -31.3490  102.1160  -48.2720 N   0  0  0  0  0  0  0  0  0  0  0  0
  1  5  1  0  0  0  0
  2  6  1  0  0  0  0
  3  7  1  0  0  0  0
  4  9  1  0  0  0  0
  5  6  2  0  0  0  0
  5  8  1  0  0  0  0
  6  9  1  0  0  0  0
  7  8  2  0  0  0  0
  7  9  1  0  0  0  0
M  END
> <scpdb_id>
3d70_1

$$$$
