#    Name: 29224
#    Modification time : Tue Aug  8 22:21:37 2017

@<TRIPOS>MOLECULE
29224
   32     0    12     0     0
SMALL
NO_CHARGES


@<TRIPOS>ATOM
      1 N          22.1520   11.1890   22.2410 N.am      1 SEL1        0.0000 
      2 O          23.7070   12.3020   23.5630 O.2       2 ALL2        0.0000 
      3 OD1        29.6010   14.4680   29.5490 O.co2     3 ASL4        0.0000 
      4 CA         28.0630    9.0520   27.6280 C.3       4 GLL5        0.0000 
      5 CA         30.1780   15.0010   31.8350 C.3       4 GLL5        0.0000 
      6 CA         23.1200    7.5990   24.0440 C.3       4 GLL5        0.0000 
      7 CA         24.0070    7.5420   25.0950 C.3       4 GLL5        0.0000 
      8 CA         24.5840    8.7360   25.4850 C.3       4 GLL5        0.0000 
      9 N          19.6290    9.6060   21.1180 N.am      5 SEP1        0.0000 
     10 N          21.1300   13.2970   20.8220 N.am      5 SEP1        0.0000 
     11 O          22.4980   14.7810   22.6500 O.2       6 ALP2        0.0000 
     12 OD1        30.6670   17.5130   29.2270 O.co2     7 ASP4        0.0000 
     13 CA         32.0760   10.3960   27.8410 C.3       8 GLP5        0.0000 
     14 CA         30.2210    6.9990   25.9520 C.3       8 GLP5        0.0000 
     15 CA         32.6540   17.1010   33.8600 C.3       8 GLP5        0.0000 
     16 CA         27.4350   17.8360   32.9180 C.3       8 GLP5        0.0000 
     17 CA         20.2000    6.1770   21.6240 C.3       8 GLP5        0.0000 
     18 CA         24.7290    3.5950   24.2100 C.3       8 GLP5        0.0000 
     19 CA         19.7620    6.4670   25.3270 C.3       8 GLP5        0.0000 
     20 CA         27.1870    8.4770   23.2980 C.3       8 GLP5        0.0000 
     21 N          20.8905   10.3975   21.6795 N.am      9 SEC1        0.0000 
     22 N          21.6410   12.2430   21.5315 N.am      9 SEC1        0.0000 
     23 O          23.1025   13.5415   23.1065 O.2      10 ALC2        0.0000 
     24 OD1        30.1340   15.9905   29.3880 O.co2    11 ASC4        0.0000 
     25 CA         30.0695    9.7240   27.7345 C.3      12 GLC5        0.0000 
     26 CA         29.1420    8.0255   26.7900 C.3      12 GLC5        0.0000 
     27 CA         31.4160   16.0510   32.8475 C.3      12 GLC5        0.0000 
     28 CA         28.8065   16.4185   32.3765 C.3      12 GLC5        0.0000 
     29 CA         21.5810    7.1837   22.6765 C.3      12 GLC5        0.0000 
     30 CA         24.1463    5.5828   24.3897 C.3      12 GLC5        0.0000 
     31 CA         21.5124    7.1738   24.7381 C.3      12 GLC5        0.0000 
     32 CA         25.4052    8.5467   23.8462 C.3      12 GLC5        0.0000 
@<TRIPOS>BOND
@<TRIPOS>SUBSTRUCTURE
     1 SEL1        1 GROUP        1 Z    SEL  0     ROOT SEL Z 0
     2 ALL2        2 GROUP        1 Z    ALL  0     **** ALL Z 1
     3 ASL4        3 GROUP        1 Z    ASL  0     **** ASL Z 3
     4 GLL5        4 GROUP        1 Z    GLL  0     **** GLL Z 4
     5 SEP1        9 GROUP        1 Z    SEP  0     **** SEP Z 7
     6 ALP2       11 GROUP        1 Z    ALP  0     **** ALP Z 8
     7 ASP4       12 GROUP        1 Z    ASP  0     **** ASP Z 10
     8 GLP5       13 GROUP        1 Z    GLP  0     **** GLP Z 11
     9 SEC1       21 GROUP        1 Z    SEC  0     **** SEC Z 14
    10 ALC2       23 GROUP        1 Z    ALC  0     **** ALC Z 15
    11 ASC4       24 GROUP        1 Z    ASC  0     **** ASC Z 17
    12 GLC5       25 GROUP        1 Z    GLC  0     **** GLC Z 18
@<TRIPOS>SET

