3l3m_A92_1_ligand
  -OEChem-08111718373D

 45 48  0     1  0  0  0  0  0999 V2000
   22.6908    6.7531   23.7274 H   0  0  0  0  0  0  0  0  0  0  0  0
   25.7004   12.7736   27.1721 H   0  0  0  0  0  0  0  0  0  0  0  0
   22.1402    8.7775   22.6661 H   0  0  0  0  0  0  0  0  0  0  0  0
   27.1755   13.9532   28.6066 H   0  0  0  0  0  0  0  0  0  0  0  0
   24.2232    6.6800   25.5535 H   0  0  0  0  0  0  0  0  0  0  0  0
   29.4330   10.5538   29.0895 H   0  0  0  0  0  0  0  0  0  0  0  0
   29.3817   13.6216   33.1552 H   0  0  0  0  0  0  0  0  0  0  0  0
   30.5806   13.0106   32.2300 H   0  0  0  0  0  0  0  0  0  0  0  0
   30.9070   15.3197   32.4408 H   0  0  0  0  0  0  0  0  0  0  0  0
   29.3873   15.6076   31.9172 H   0  0  0  0  0  0  0  0  0  0  0  0
   27.9442   13.6561   31.2698 H   0  0  0  0  0  0  0  0  0  0  0  0
   28.4917   12.1396   31.5291 H   0  0  0  0  0  0  0  0  0  0  0  0
   31.4974   14.4609   30.3273 H   0  0  0  0  0  0  0  0  0  0  0  0
   30.8793   15.9600   30.1338 H   0  0  0  0  0  0  0  0  0  0  0  0
   30.2306   12.5615   29.9115 H   0  0  0  0  0  0  0  0  0  0  0  0
   25.8831    8.2867   27.1011 H   0  0  0  0  0  0  0  0  0  0  0  0
   23.5343   13.2029   23.1649 H   0  0  0  0  0  0  0  0  0  0  0  0
   24.3843   12.1988   24.2914 H   0  0  0  0  0  0  0  0  0  0  0  0
   28.7602   14.9901   29.6920 H   0  0  0  0  0  0  0  0  0  0  0  0
   23.1200    7.5990   24.0440 C   0  0  0  0  0  0  0  0  0  0  0  0
   26.4820   12.3000   27.5780 C   0  0  0  0  0  0  0  0  0  0  0  0
   22.8040    8.7820   23.4140 C   0  0  0  0  0  0  0  0  0  0  0  0
   27.3410   12.9870   28.4090 C   0  0  0  0  0  0  0  0  0  0  0  0
   24.0070    7.5420   25.0950 C   0  0  0  0  0  0  0  0  0  0  0  0
   28.6460   11.0240   28.6900 C   0  0  0  0  0  0  0  0  0  0  0  0
   26.6910   10.9670   27.3020 C   0  0  0  0  0  0  0  0  0  0  0  0
   23.3840    9.9690   23.7940 C   0  0  0  0  0  0  0  0  0  0  0  0
   28.4250   12.3500   28.9680 C   0  0  0  0  0  0  0  0  0  0  0  0
   24.2810    9.9110   24.8340 C   0  0  0  0  0  0  0  0  0  0  0  0
   24.5840    8.7360   25.4850 C   0  0  0  0  0  0  0  0  0  0  0  0
   27.7860   10.3430   27.8630 C   0  0  0  0  0  0  0  0  0  0  0  0
   25.7690   10.2530   26.4470 C   0  0  0  0  0  0  0  0  0  0  0  0
   23.0150   11.2080   23.1100 C   0  0  0  0  0  0  0  0  0  0  0  0
   29.7750   13.6030   32.2360 C   0  0  2  0  0  0  0  0  0  0  0  0
   30.1780   15.0010   31.8350 C   0  0  2  0  0  0  0  0  0  0  0  0
   28.7530   13.0680   31.2650 C   0  0  2  0  0  0  0  0  0  0  0  0
   30.6730   15.0210   30.4090 C   0  0  2  0  0  0  0  0  0  0  0  0
   29.3590   13.0510   29.8860 C   0  0  2  0  0  0  0  0  0  0  0  0
   25.0340   10.8580   25.4660 N   0  0  0  0  0  0  0  0  0  0  0  0
   25.4970    8.9650   26.4760 N   0  0  0  0  0  0  0  0  0  0  0  0
   23.7070   12.3020   23.5630 N   0  0  0  0  0  0  0  0  0  0  0  0
   29.6010   14.4680   29.5490 N   0  3  2  0  0  0  0  0  0  0  0  0
   22.1520   11.1890   22.2410 O   0  0  0  0  0  0  0  0  0  0  0  0
   28.0630    9.0520   27.6280 F   0  0  0  0  0  0  0  0  0  0  0  0
   29.8774   14.5373   28.5905 H   0  0  0  0  0  0  0  0  0  0  0  0
  1 20  1  0  0  0  0
  2 21  1  0  0  0  0
  3 22  1  0  0  0  0
  4 23  1  0  0  0  0
  5 24  1  0  0  0  0
  6 25  1  0  0  0  0
  7 34  1  0  0  0  0
  8 34  1  0  0  0  0
  9 35  1  0  0  0  0
 10 35  1  0  0  0  0
 11 36  1  0  0  0  0
 12 36  1  0  0  0  0
 13 37  1  0  0  0  0
 14 37  1  0  0  0  0
 15 38  1  0  0  0  0
 16 40  1  0  0  0  0
 17 41  1  0  0  0  0
 18 41  1  0  0  0  0
 19 42  1  0  0  0  0
 20 22  2  0  0  0  0
 20 24  1  0  0  0  0
 21 23  2  0  0  0  0
 21 26  1  0  0  0  0
 22 27  1  0  0  0  0
 23 28  1  0  0  0  0
 24 30  2  0  0  0  0
 25 28  2  0  0  0  0
 25 31  1  0  0  0  0
 26 31  2  0  0  0  0
 26 32  1  0  0  0  0
 27 29  2  0  0  0  0
 27 33  1  0  0  0  0
 28 38  1  0  0  0  0
 29 30  1  0  0  0  0
 29 39  1  0  0  0  0
 30 40  1  0  0  0  0
 31 44  1  0  0  0  0
 32 39  2  0  0  0  0
 32 40  1  0  0  0  0
 33 41  1  0  0  0  0
 33 43  2  0  0  0  0
 34 35  1  0  0  0  0
 34 36  1  0  0  0  0
 35 37  1  0  0  0  0
 36 38  1  0  0  0  0
 37 42  1  0  0  0  0
 38 42  1  0  0  0  0
 42 45  1  0  0  0  0
M  CHG  1  42   1
M  END
> <scpdb_id>
3l3m_1

$$$$
