@<TRIPOS>MOLECULE
3l3m_A92_1_ligand
   45    48     1     0     0
SMALL
NO_CHARGES


@<TRIPOS>ATOM
     1 F           28.0630     9.0520    27.6280 F            1 A92351   0.0000
     2 C1          23.1200     7.5990    24.0440 C.ar         1 A92351   0.0000
     3 C2          26.4820    12.3000    27.5780 C.ar         1 A92351   0.0000
     4 C3          22.8040     8.7820    23.4140 C.ar         1 A92351   0.0000
     5 C4          27.3410    12.9870    28.4090 C.ar         1 A92351   0.0000
     6 C5          24.0070     7.5420    25.0950 C.ar         1 A92351   0.0000
     7 C6          28.6460    11.0240    28.6900 C.ar         1 A92351   0.0000
     8 C7          26.6910    10.9670    27.3020 C.ar         1 A92351   0.0000
     9 C8          23.3840     9.9690    23.7940 C.ar         1 A92351   0.0000
    10 C9          28.4250    12.3500    28.9680 C.ar         1 A92351   0.0000
    11 C10         24.2810     9.9110    24.8340 C.ar         1 A92351   0.0000
    12 C11         24.5840     8.7360    25.4850 C.ar         1 A92351   0.0000
    13 C12         27.7860    10.3430    27.8630 C.ar         1 A92351   0.0000
    14 C13         25.7690    10.2530    26.4470 C.2          1 A92351   0.0000
    15 C14         23.0150    11.2080    23.1100 C.2          1 A92351   0.0000
    16 C15         29.7750    13.6030    32.2360 C.3          1 A92351   0.0000
    17 C16         30.1780    15.0010    31.8350 C.3          1 A92351   0.0000
    18 C17         28.7530    13.0680    31.2650 C.3          1 A92351   0.0000
    19 C18         30.6730    15.0210    30.4090 C.3          1 A92351   0.0000
    20 C19         29.3590    13.0510    29.8860 C.3          1 A92351   0.0000
    21 N20         25.0340    10.8580    25.4660 N.2          1 A92351   0.0000
    22 N21         25.4970     8.9650    26.4760 N.pl3        1 A92351   0.0000
    23 N22         29.6010    14.4680    29.5490 N.4          1 A92351   1.0000
    24 N23         23.7070    12.3020    23.5630 N.am         1 A92351   0.0000
    25 O24         22.1520    11.1890    22.2410 O.2          1 A92351   0.0000
    26 H1          22.6908     6.7531    23.7274 H            1 A92351   0.0000
    27 H2          25.7004    12.7736    27.1721 H            1 A92351   0.0000
    28 H3          22.1402     8.7775    22.6661 H            1 A92351   0.0000
    29 H4          27.1755    13.9532    28.6066 H            1 A92351   0.0000
    30 H5          24.2232     6.6800    25.5535 H            1 A92351   0.0000
    31 H6          29.4330    10.5538    29.0895 H            1 A92351   0.0000
    32 H7          29.3817    13.6216    33.1552 H            1 A92351   0.0000
    33 H8          30.5806    13.0106    32.2300 H            1 A92351   0.0000
    34 H9          30.9070    15.3197    32.4408 H            1 A92351   0.0000
    35 H10         29.3873    15.6076    31.9172 H            1 A92351   0.0000
    36 H11         27.9442    13.6561    31.2698 H            1 A92351   0.0000
    37 H12         28.4917    12.1396    31.5291 H            1 A92351   0.0000
    38 H13         31.4974    14.4609    30.3273 H            1 A92351   0.0000
    39 H14         30.8793    15.9600    30.1338 H            1 A92351   0.0000
    40 H15         30.2306    12.5615    29.9115 H            1 A92351   0.0000
    41 H16         25.8831     8.2867    27.1011 H            1 A92351   0.0000
    42 H17         29.8774    14.5373    28.5905 H            1 A92351   0.0000
    43 H18         23.5343    13.2029    23.1649 H            1 A92351   0.0000
    44 H19         24.3843    12.1988    24.2914 H            1 A92351   0.0000
    45 H20         28.7602    14.9901    29.6920 H            1 A92351   0.0000
@<TRIPOS>BOND
     1    1   13       1
     2    2    4      ar
     3    2    6      ar
     4    3    5      ar
     5    3    8      ar
     6    4    9      ar
     7    5   10      ar
     8    6   12      ar
     9    7   10      ar
    10    7   13      ar
    11    8   13      ar
    12    8   14       1
    13    9   11      ar
    14    9   15       1
    15   10   20       1
    16   11   12      ar
    17   11   21       1
    18   12   22       1
    19   14   21       2
    20   14   22       1
    21   15   24      am
    22   15   25       2
    23   16   17       1
    24   16   18       1
    25   17   19       1
    26   18   20       1
    27   19   23       1
    28   20   23       1
    29    2   26       1
    30    3   27       1
    31    4   28       1
    32    5   29       1
    33    6   30       1
    34    7   31       1
    35   16   32       1
    36   16   33       1
    37   17   34       1
    38   17   35       1
    39   18   36       1
    40   18   37       1
    41   19   38       1
    42   19   39       1
    43   20   40       1
    44   22   41       1
    45   23   42       1
    46   24   43       1
    47   24   44       1
    48   23   45       1
@<TRIPOS>SUBSTRUCTURE
     1 A92351      1 GROUP             4 A     A92     0 **** A92 A 351
