#    Name: 47243
#    Modification time : Tue Aug  8 20:06:15 2017

@<TRIPOS>MOLECULE
47243
   37     0     9     0     0
SMALL
NO_CHARGES


@<TRIPOS>ATOM
      1 N          46.7410  -20.4020   18.9590 N.am      1 SEL1        0.0000 
      2 N          44.2850  -20.1430   18.0800 N.am      1 SEL1        0.0000 
      3 N          45.6580  -15.3780   21.5340 N.am      1 SEL1        0.0000 
      4 N          43.6380  -15.8920   15.6840 N.am      1 SEL1        0.0000 
      5 N          41.5800  -14.4750   14.0240 N.am      1 SEL1        0.0000 
      6 N          44.8990  -15.0060   23.7340 N.am      1 SEL1        0.0000 
      7 N          39.6660  -16.8350   20.7530 N.am      1 SEL1        0.0000 
      8 N          37.3210  -16.6880   18.8710 N.am      1 SEL1        0.0000 
      9 O          37.5630  -18.9190   18.6290 O.2       2 ALL2        0.0000 
     10 O          37.7460  -21.3870   18.2010 O.2       2 ALL2        0.0000 
     11 CA         46.6330  -16.1230   19.3610 C.3       3 GLL5        0.0000 
     12 CA         46.0620  -14.3770   18.0610 C.3       3 GLL5        0.0000 
     13 CA         41.6880  -19.7810   21.7290 C.3       3 GLL5        0.0000 
     14 N          48.7920  -21.1790   16.9240 N.am      4 SEP1        0.0000 
     15 N          41.9050  -18.9350   17.1630 N.am      4 SEP1        0.0000 
     16 N          47.4530  -15.9010   24.4730 N.am      4 SEP1        0.0000 
     17 N          43.2830  -18.2220   13.8410 N.am      4 SEP1        0.0000 
     18 N          41.3630  -17.2280   13.1830 N.am      4 SEP1        0.0000 
     19 N          38.8960  -14.2520   21.5530 N.am      4 SEP1        0.0000 
     20 N          37.6170  -14.1410   19.6710 N.am      4 SEP1        0.0000 
     21 O          35.2140  -19.0450   17.3080 O.2       5 ALP2        0.0000 
     22 O          35.4150  -21.1650   16.5560 O.2       5 ALP2        0.0000 
     23 CA         49.6570  -13.1350   19.3020 C.3       6 GLP5        0.0000 
     24 CA         40.4970  -19.2600   25.7540 C.3       6 GLP5        0.0000 
     25 N          47.7665  -20.7905   17.9415 N.am      7 SEC1        0.0000 
     26 N          43.0950  -19.5390   17.6215 N.am      7 SEC1        0.0000 
     27 N          46.5555  -15.6395   23.0035 N.am      7 SEC1        0.0000 
     28 N          43.4605  -17.0570   14.7625 N.am      7 SEC1        0.0000 
     29 N          41.4715  -15.8515   13.6035 N.am      7 SEC1        0.0000 
     30 N          46.1760  -15.4535   24.1035 N.am      7 SEC1        0.0000 
     31 N          39.2810  -15.5435   21.1530 N.am      7 SEC1        0.0000 
     32 N          37.4690  -15.4145   19.2710 N.am      7 SEC1        0.0000 
     33 O          36.3885  -18.9820   17.9685 O.2       8 ALC2        0.0000 
     34 O          36.5805  -21.2760   17.3785 O.2       8 ALC2        0.0000 
     35 CA         48.1450  -14.6290   19.3315 C.3       9 GLC5        0.0000 
     36 CA         47.8595  -13.7560   18.6815 C.3       9 GLC5        0.0000 
     37 CA         41.0925  -19.5205   23.7415 C.3       9 GLC5        0.0000 
@<TRIPOS>BOND
@<TRIPOS>SUBSTRUCTURE
     1 SEL1        1 GROUP        1 Z    SEL  0     ROOT SEL Z 0
     2 ALL2        9 GROUP        1 Z    ALL  0     **** ALL Z 1
     3 GLL5       11 GROUP        1 Z    GLL  0     **** GLL Z 4
     4 SEP1       14 GROUP        1 Z    SEP  0     **** SEP Z 7
     5 ALP2       21 GROUP        1 Z    ALP  0     **** ALP Z 8
     6 GLP5       23 GROUP        1 Z    GLP  0     **** GLP Z 11
     7 SEC1       25 GROUP        1 Z    SEC  0     **** SEC Z 14
     8 ALC2       33 GROUP        1 Z    ALC  0     **** ALC Z 15
     9 GLC5       35 GROUP        1 Z    GLC  0     **** GLC Z 18
@<TRIPOS>SET

