#    Name: 37009
#    Modification time : Tue Aug  8 20:24:30 2017

@<TRIPOS>MOLECULE
37009
   47     0     6     0     0
SMALL
NO_CHARGES


@<TRIPOS>ATOM
      1 O         -47.9150   -3.3860   37.6960 O.2       1 ALL2        0.0000 
      2 O         -47.3580   -0.8640   39.1700 O.2       1 ALL2        0.0000 
      3 CA        -47.3460   -3.3980   39.0310 C.3       2 GLL5        0.0000 
      4 CA        -45.9260   -3.0090   42.0040 C.3       2 GLL5        0.0000 
      5 CA        -44.5410   -2.6940   42.1360 C.3       2 GLL5        0.0000 
      6 CA        -41.7430   -2.9780   43.0810 C.3       2 GLL5        0.0000 
      7 CA        -45.7610   -4.9190   43.6190 C.3       2 GLL5        0.0000 
      8 CA        -46.7250   -6.5280   44.7480 C.3       2 GLL5        0.0000 
      9 CA        -46.4880   -4.0740   42.7390 C.3       2 GLL5        0.0000 
     10 CA        -42.4590   -5.8930   46.6110 C.3       2 GLL5        0.0000 
     11 CA        -44.3220   -4.5340   43.7440 C.3       2 GLL5        0.0000 
     12 CA        -42.7190   -4.4470   48.4920 C.3       2 GLL5        0.0000 
     13 CA        -43.4870   -3.6000   47.6960 C.3       2 GLL5        0.0000 
     14 O         -45.4710   -2.6170   36.0790 O.2       3 ALP2        0.0000 
     15 O         -46.1120    1.8060   38.9620 O.2       3 ALP2        0.0000 
     16 CA        -47.5970   -6.6890   39.7630 C.3       4 GLP5        0.0000 
     17 CA        -45.8060   -6.7230   39.5890 C.3       4 GLP5        0.0000 
     18 CA        -42.7080   -2.3270   38.6360 C.3       4 GLP5        0.0000 
     19 CA        -42.5660   -7.0230   41.5590 C.3       4 GLP5        0.0000 
     20 CA        -40.5570   -3.5890   38.9330 C.3       4 GLP5        0.0000 
     21 CA        -43.2890    0.3610   44.5470 C.3       4 GLP5        0.0000 
     22 CA        -43.9840   -8.7630   42.2720 C.3       4 GLP5        0.0000 
     23 CA        -46.3560   -5.1530   48.7010 C.3       4 GLP5        0.0000 
     24 CA        -44.4130   -9.5180   46.4070 C.3       4 GLP5        0.0000 
     25 CA        -42.5270   -9.0490   47.9310 C.3       4 GLP5        0.0000 
     26 CA        -38.4890   -6.0750   46.4700 C.3       4 GLP5        0.0000 
     27 CA        -40.0150   -1.6830   48.0900 C.3       4 GLP5        0.0000 
     28 O         -46.6930   -3.0015   36.8875 O.2       5 ALC2        0.0000 
     29 O         -46.7350    0.4710   39.0660 O.2       5 ALC2        0.0000 
     30 CA        -47.4715   -5.0435   39.3970 C.3       6 GLC5        0.0000 
     31 CA        -45.8660   -4.8660   40.7965 C.3       6 GLC5        0.0000 
     32 CA        -43.6245   -2.5105   40.3860 C.3       6 GLC5        0.0000 
     33 CA        -42.1545   -5.0005   42.3200 C.3       6 GLC5        0.0000 
     34 CA        -41.1500   -3.2835   41.0070 C.3       6 GLC5        0.0000 
     35 CA        -42.5160   -1.3085   43.8140 C.3       6 GLC5        0.0000 
     36 CA        -45.7835   -5.8210   41.6040 C.3       6 GLC5        0.0000 
     37 CA        -45.3545   -7.6455   43.5100 C.3       6 GLC5        0.0000 
     38 CA        -46.5405   -5.8405   46.7245 C.3       6 GLC5        0.0000 
     39 CA        -45.5690   -8.0230   45.5775 C.3       6 GLC5        0.0000 
     40 CA        -47.0425   -5.3815   41.2510 C.3       6 GLC5        0.0000 
     41 CA        -43.4360   -7.7055   46.5090 C.3       6 GLC5        0.0000 
     42 CA        -42.4930   -7.4710   47.2710 C.3       6 GLC5        0.0000 
     43 CA        -43.7195   -1.3430   43.5532 C.3       6 GLC5        0.0000 
     44 CA        -43.7334   -5.7330   42.5251 C.3       6 GLC5        0.0000 
     45 CA        -40.4060   -5.9130   46.8772 C.3       6 GLC5        0.0000 
     46 CA        -41.4925   -2.9985   48.0252 C.3       6 GLC5        0.0000 
     47 CA        -44.6148   -5.0013   47.9791 C.3       6 GLC5        0.0000 
@<TRIPOS>BOND
@<TRIPOS>SUBSTRUCTURE
     1 ALL2        1 GROUP        1 Z    ALL  0     ROOT ALL Z 1
     2 GLL5        3 GROUP        1 Z    GLL  0     **** GLL Z 4
     3 ALP2       14 GROUP        1 Z    ALP  0     **** ALP Z 8
     4 GLP5       16 GROUP        1 Z    GLP  0     **** GLP Z 11
     5 ALC2       28 GROUP        1 Z    ALC  0     **** ALC Z 15
     6 GLC5       30 GROUP        1 Z    GLC  0     **** GLC Z 18
@<TRIPOS>SET

