3bej_MUF_1_ligand
  -OEChem-08111718373D

 62 66  0     1  0  0  0  0  0999 V2000
   24.4548   -7.1072   13.6197 H   0  0  0  0  0  0  0  0  0  0  0  0
   22.9765   -3.3231   12.5493 H   0  0  0  0  0  0  0  0  0  0  0  0
   26.6835   -6.1727   13.7536 H   0  0  0  0  0  0  0  0  0  0  0  0
   25.2119   -2.3995   12.7116 H   0  0  0  0  0  0  0  0  0  0  0  0
   20.2303  -12.7067    6.0413 H   0  0  0  0  0  0  0  0  0  0  0  0
   19.9682  -12.5862    8.4334 H   0  0  0  0  0  0  0  0  0  0  0  0
   20.7927  -11.3302   10.4018 H   0  0  0  0  0  0  0  0  0  0  0  0
   19.2250  -10.9720   10.1175 H   0  0  0  0  0  0  0  0  0  0  0  0
   22.6396  -10.0057    4.1817 H   0  0  0  0  0  0  0  0  0  0  0  0
   21.1873   -9.2927    4.4035 H   0  0  0  0  0  0  0  0  0  0  0  0
   22.6132   -8.5297    6.1328 H   0  0  0  0  0  0  0  0  0  0  0  0
   23.0350  -10.0611    6.5117 H   0  0  0  0  0  0  0  0  0  0  0  0
   20.7914   -8.3863   14.1791 H   0  0  0  0  0  0  0  0  0  0  0  0
   19.8260   -7.2547   13.5054 H   0  0  0  0  0  0  0  0  0  0  0  0
   20.0252   -9.9141   12.6934 H   0  0  0  0  0  0  0  0  0  0  0  0
   19.0789   -8.7761   12.0033 H   0  0  0  0  0  0  0  0  0  0  0  0
   21.2183   -7.0193    8.3684 H   0  0  0  0  0  0  0  0  0  0  0  0
   22.7577   -7.4309    8.0113 H   0  0  0  0  0  0  0  0  0  0  0  0
   22.6528   -6.1067   10.0219 H   0  0  0  0  0  0  0  0  0  0  0  0
   23.2904   -7.5813   10.3148 H   0  0  0  0  0  0  0  0  0  0  0  0
   22.5853   -7.8394   12.8127 H   0  0  0  0  0  0  0  0  0  0  0  0
   19.6901   -8.8263    9.5233 H   0  0  0  0  0  0  0  0  0  0  0  0
   22.4218   -9.6021    8.9210 H   0  0  0  0  0  0  0  0  0  0  0  0
   21.8350   -9.3832   11.3697 H   0  0  0  0  0  0  0  0  0  0  0  0
   19.1456   -8.6817    7.4350 H   0  0  0  0  0  0  0  0  0  0  0  0
   20.1954   -7.6824    6.6828 H   0  0  0  0  0  0  0  0  0  0  0  0
   19.5582   -8.9527    5.8784 H   0  0  0  0  0  0  0  0  0  0  0  0
   19.4070   -6.5334   11.4963 H   0  0  0  0  0  0  0  0  0  0  0  0
   20.4299   -5.4488   10.8301 H   0  0  0  0  0  0  0  0  0  0  0  0
   19.7826   -6.6326    9.9102 H   0  0  0  0  0  0  0  0  0  0  0  0
   28.1402   -4.3678   13.6032 H   0  0  0  0  0  0  0  0  0  0  0  0
   24.6070   -6.1380   13.4260 C   0  0  0  0  0  0  0  0  0  0  0  0
   23.7430   -3.9140   12.8010 C   0  0  0  0  0  0  0  0  0  0  0  0
   25.9110   -5.5880   13.5060 C   0  0  0  0  0  0  0  0  0  0  0  0
   25.0510   -3.3700   12.8910 C   0  0  0  0  0  0  0  0  0  0  0  0
   23.5130   -5.2940   13.0660 C   0  0  0  0  0  0  0  0  0  0  0  0
   26.1230   -4.2250   13.2390 C   0  0  0  0  0  0  0  0  0  0  0  0
   20.6410  -11.7950    6.0460 C   0  0  0  0  0  0  0  0  0  0  0  0
   20.2290  -11.6210    8.4540 C   0  0  0  0  0  0  0  0  0  0  0  0
   20.6320  -11.0300    7.2930 C   0  0  0  0  0  0  0  0  0  0  0  0
   21.1850  -11.3190    4.8900 C   0  0  0  0  0  0  0  0  0  0  0  0
   22.1100   -5.7930   12.9620 C   0  0  0  0  0  0  0  0  0  0  0  0
   21.1160  -12.2400    3.7600 C   0  0  0  0  0  0  0  0  0  0  0  0
   20.1590  -10.8810    9.7720 C   0  0  2  0  0  0  0  0  0  0  0  0
   21.8420   -9.9470    4.7820 C   0  0  1  0  0  0  0  0  0  0  0  0
   22.2900   -9.4740    6.1950 C   0  0  2  0  0  0  0  0  0  0  0  0
   20.5310   -7.9400   13.3230 C   0  0  2  0  0  0  0  0  0  0  0  0
   20.0080   -8.9940   12.3020 C   0  0  1  0  0  0  0  0  0  0  0  0
   22.0070   -7.5610    8.6590 C   0  0  1  0  0  0  0  0  0  0  0  0
   22.4590   -7.0870   10.0610 C   0  0  2  0  0  0  0  0  0  0  0  0
   21.7760   -7.2720   12.6610 C   0  0  1  0  0  0  0  0  0  0  0  0
   20.5120   -9.3430    9.7630 C   0  0  2  0  0  0  0  0  0  0  0  0
   21.6100   -9.0680    8.6850 C   0  0  1  0  0  0  0  0  0  0  0  0
   21.0110   -8.8670   11.1360 C   0  0  1  0  0  0  0  0  0  0  0  0
   21.0990   -9.5420    7.2460 C   0  0  2  0  0  0  0  0  0  0  0  0
   21.3560   -7.3440   11.1680 C   0  0  2  0  0  0  0  0  0  0  0  0
   19.8870   -8.6300    6.7660 C   0  0  0  0  0  0  0  0  0  0  0  0
   20.1310   -6.4030   10.8190 C   0  0  0  0  0  0  0  0  0  0  0  0
   20.9290  -13.4410    3.8530 O   0  5  0  0  0  0  0  0  0  0  0  0
   21.2020   -4.9670   13.0830 O   0  0  0  0  0  0  0  0  0  0  0  0
   21.3200  -11.6060    2.5960 O   0  0  0  0  0  0  0  0  0  0  0  0
   27.3970   -3.7510   13.3440 O   0  0  0  0  0  0  0  0  0  0  0  0
  1 32  1  0  0  0  0
  2 33  1  0  0  0  0
  3 34  1  0  0  0  0
  4 35  1  0  0  0  0
  5 38  1  0  0  0  0
  6 39  1  0  0  0  0
  7 44  1  0  0  0  0
  8 44  1  0  0  0  0
  9 45  1  0  0  0  0
 10 45  1  0  0  0  0
 11 46  1  0  0  0  0
 12 46  1  0  0  0  0
 13 47  1  0  0  0  0
 14 47  1  0  0  0  0
 15 48  1  0  0  0  0
 16 48  1  0  0  0  0
 17 49  1  0  0  0  0
 18 49  1  0  0  0  0
 19 50  1  0  0  0  0
 20 50  1  0  0  0  0
 21 51  1  0  0  0  0
 22 52  1  0  0  0  0
 23 53  1  0  0  0  0
 24 54  1  0  0  0  0
 25 57  1  0  0  0  0
 26 57  1  0  0  0  0
 27 57  1  0  0  0  0
 28 58  1  0  0  0  0
 29 58  1  0  0  0  0
 30 58  1  0  0  0  0
 31 62  1  0  0  0  0
 32 34  1  0  0  0  0
 32 36  2  0  0  0  0
 33 35  2  0  0  0  0
 33 36  1  0  0  0  0
 34 37  2  0  0  0  0
 35 37  1  0  0  0  0
 36 42  1  0  0  0  0
 37 62  1  0  0  0  0
 38 40  1  0  0  0  0
 38 41  2  0  0  0  0
 39 40  2  0  0  0  0
 39 44  1  0  0  0  0
 40 55  1  0  0  0  0
 41 43  1  0  0  0  0
 41 45  1  0  0  0  0
 42 51  1  0  0  0  0
 42 60  2  0  0  0  0
 43 59  1  0  0  0  0
 43 61  2  0  0  0  0
 44 52  1  0  0  0  0
 45 46  1  0  0  0  0
 46 55  1  0  0  0  0
 47 48  1  0  0  0  0
 47 51  1  0  0  0  0
 48 54  1  0  0  0  0
 49 50  1  0  0  0  0
 49 53  1  0  0  0  0
 50 56  1  0  0  0  0
 51 56  1  0  0  0  0
 52 53  1  0  0  0  0
 52 54  1  0  0  0  0
 53 55  1  0  0  0  0
 54 56  1  0  0  0  0
 55 57  1  0  0  0  0
 56 58  1  0  0  0  0
M  CHG  1  59  -1
M  END
> <scpdb_id>
3bej_1

$$$$
