3ipq_965_1_ligand
  -OEChem-08111718373D

 72 75  0     1  0  0  0  0  0999 V2000
   39.8051   20.5592   -3.3522 H   0  0  0  0  0  0  0  0  0  0  0  0
   37.9093   19.1520  -11.6880 H   0  0  0  0  0  0  0  0  0  0  0  0
   41.9175   19.8938   -4.2154 H   0  0  0  0  0  0  0  0  0  0  0  0
   37.7990   19.6923   -4.3070 H   0  0  0  0  0  0  0  0  0  0  0  0
   40.2103   19.5515  -11.1836 H   0  0  0  0  0  0  0  0  0  0  0  0
   36.5859   17.8284  -10.2083 H   0  0  0  0  0  0  0  0  0  0  0  0
   38.5208   17.4826   -2.2025 H   0  0  0  0  0  0  0  0  0  0  0  0
   46.3398   19.2815   -3.7552 H   0  0  0  0  0  0  0  0  0  0  0  0
   42.0656   18.3348   -6.0175 H   0  0  0  0  0  0  0  0  0  0  0  0
   37.9349   18.1531   -6.1418 H   0  0  0  0  0  0  0  0  0  0  0  0
   41.1656   18.6799   -9.1900 H   0  0  0  0  0  0  0  0  0  0  0  0
   37.5733   16.8616   -8.2523 H   0  0  0  0  0  0  0  0  0  0  0  0
   40.1874   16.4392   -3.5336 H   0  0  0  0  0  0  0  0  0  0  0  0
   36.3897   16.4733   -1.9277 H   0  0  0  0  0  0  0  0  0  0  0  0
   48.4978   18.4327   -3.1861 H   0  0  0  0  0  0  0  0  0  0  0  0
   44.5483   17.7886   -4.2812 H   0  0  0  0  0  0  0  0  0  0  0  0
   47.1368   14.5742   -3.8517 H   0  0  0  0  0  0  0  0  0  0  0  0
   49.6233   16.2344   -2.2665 H   0  0  0  0  0  0  0  0  0  0  0  0
   49.3144   14.8971   -3.1512 H   0  0  0  0  0  0  0  0  0  0  0  0
   40.8959   14.1243   -4.3406 H   0  0  0  0  0  0  0  0  0  0  0  0
   39.7772   13.3103   -5.2081 H   0  0  0  0  0  0  0  0  0  0  0  0
   42.5262   13.5756   -5.1527 H   0  0  0  0  0  0  0  0  0  0  0  0
   43.6606   13.8957   -6.2829 H   0  0  0  0  0  0  0  0  0  0  0  0
   41.7232   14.0198   -7.4251 H   0  0  0  0  0  0  0  0  0  0  0  0
   42.1117   15.5807   -7.1430 H   0  0  0  0  0  0  0  0  0  0  0  0
   38.7288   15.9099   -6.3577 H   0  0  0  0  0  0  0  0  0  0  0  0
   39.2901   15.2433   -7.7387 H   0  0  0  0  0  0  0  0  0  0  0  0
   43.4258   16.2597   -5.4429 H   0  0  0  0  0  0  0  0  0  0  0  0
   42.8411   15.5295   -4.1043 H   0  0  0  0  0  0  0  0  0  0  0  0
   41.0888   17.0124   -7.5605 H   0  0  0  0  0  0  0  0  0  0  0  0
   39.8510   19.9130   -4.1140 C   0  0  0  0  0  0  0  0  0  0  0  0
   38.3160   18.7660  -10.8600 C   0  0  0  0  0  0  0  0  0  0  0  0
   41.0810   19.5200   -4.6160 C   0  0  0  0  0  0  0  0  0  0  0  0
   38.6900   19.4130   -4.6650 C   0  0  0  0  0  0  0  0  0  0  0  0
   39.6510   19.0030  -10.5620 C   0  0  0  0  0  0  0  0  0  0  0  0
   37.5510   17.9920  -10.0040 C   0  0  0  0  0  0  0  0  0  0  0  0
   38.3200   16.6180   -2.6630 C   0  0  0  0  0  0  0  0  0  0  0  0
   46.5030   18.2950   -3.7660 C   0  0  0  0  0  0  0  0  0  0  0  0
   41.1720   18.6150   -5.6670 C   0  0  0  0  0  0  0  0  0  0  0  0
   38.7730   18.5110   -5.7300 C   0  0  0  0  0  0  0  0  0  0  0  0
   40.2100   18.4840   -9.4100 C   0  0  0  0  0  0  0  0  0  0  0  0
   38.1230   17.4390   -8.8560 C   0  0  0  0  0  0  0  0  0  0  0  0
   39.2840   16.0210   -3.4390 C   0  0  0  0  0  0  0  0  0  0  0  0
   37.0720   16.0340   -2.5120 C   0  0  0  0  0  0  0  0  0  0  0  0
   47.7650   17.8060   -3.4510 C   0  0  0  0  0  0  0  0  0  0  0  0
   45.4640   17.4320   -4.0960 C   0  0  0  0  0  0  0  0  0  0  0  0
   46.9690   15.5600   -3.8440 C   0  0  0  0  0  0  0  0  0  0  0  0
   40.0100   18.1060   -6.2230 C   0  0  0  0  0  0  0  0  0  0  0  0
   39.4520   17.6900   -8.5530 C   0  0  0  0  0  0  0  0  0  0  0  0
   47.9990   16.4340   -3.5080 C   0  0  0  0  0  0  0  0  0  0  0  0
   38.9910   14.8350   -4.0880 C   0  0  0  0  0  0  0  0  0  0  0  0
   36.7550   14.8450   -3.1620 C   0  0  0  0  0  0  0  0  0  0  0  0
   45.7200   16.0440   -4.1660 C   0  0  0  0  0  0  0  0  0  0  0  0
   37.7360   14.2410   -3.9460 C   0  0  0  0  0  0  0  0  0  0  0  0
   50.4010   16.3250   -4.1820 C   0  0  0  0  0  0  0  0  0  0  0  0
   49.3570   15.8960   -3.1690 C   0  0  1  0  0  0  0  0  0  0  0  0
   40.0890   14.2170   -4.9240 C   0  0  1  0  0  0  0  0  0  0  0  0
   42.9020   14.2790   -5.7560 C   0  0  1  0  0  0  0  0  0  0  0  0
   41.8150   14.7240   -6.7210 C   0  0  2  0  0  0  0  0  0  0  0  0
   39.5430   15.7540   -6.9170 C   0  0  1  0  0  0  0  0  0  0  0  0
   43.4280   15.4160   -4.9060 C   0  0  1  0  0  0  0  0  0  0  0  0
   40.1190   17.1340   -7.3490 C   0  0  2  0  0  0  0  0  0  0  0  0
   35.3790   14.2170   -2.9940 C   0  0  1  0  0  0  0  0  0  0  0  0
   40.5000   14.9460   -6.1380 N   0  3  1  0  0  0  0  0  0  0  0  0
   51.5110   16.5760   -3.7340 O   0  5  0  0  0  0  0  0  0  0  0  0
   50.1600   16.4090   -5.4030 O   0  0  0  0  0  0  0  0  0  0  0  0
   44.7580   15.1300   -4.4810 O   0  0  0  0  0  0  0  0  0  0  0  0
   35.5980   12.9670   -2.6130 F   0  0  0  0  0  0  0  0  0  0  0  0
   34.6470   14.8240   -2.0660 F   0  0  0  0  0  0  0  0  0  0  0  0
   34.6800   14.2580   -4.1380 F   0  0  0  0  0  0  0  0  0  0  0  0
   37.3800   12.6770   -4.7710 Cl  0  0  0  0  0  0  0  0  0  0  0  0
   40.8136   15.7375   -5.6135 H   0  0  0  0  0  0  0  0  0  0  0  0
  1 31  1  0  0  0  0
  2 32  1  0  0  0  0
  3 33  1  0  0  0  0
  4 34  1  0  0  0  0
  5 35  1  0  0  0  0
  6 36  1  0  0  0  0
  7 37  1  0  0  0  0
  8 38  1  0  0  0  0
  9 39  1  0  0  0  0
 10 40  1  0  0  0  0
 11 41  1  0  0  0  0
 12 42  1  0  0  0  0
 13 43  1  0  0  0  0
 14 44  1  0  0  0  0
 15 45  1  0  0  0  0
 16 46  1  0  0  0  0
 17 47  1  0  0  0  0
 18 56  1  0  0  0  0
 19 56  1  0  0  0  0
 20 57  1  0  0  0  0
 21 57  1  0  0  0  0
 22 58  1  0  0  0  0
 23 58  1  0  0  0  0
 24 59  1  0  0  0  0
 25 59  1  0  0  0  0
 26 60  1  0  0  0  0
 27 60  1  0  0  0  0
 28 61  1  0  0  0  0
 29 61  1  0  0  0  0
 30 62  1  0  0  0  0
 31 33  2  0  0  0  0
 31 34  1  0  0  0  0
 32 35  2  0  0  0  0
 32 36  1  0  0  0  0
 33 39  1  0  0  0  0
 34 40  2  0  0  0  0
 35 41  1  0  0  0  0
 36 42  2  0  0  0  0
 37 43  1  0  0  0  0
 37 44  2  0  0  0  0
 38 45  1  0  0  0  0
 38 46  2  0  0  0  0
 39 48  2  0  0  0  0
 40 48  1  0  0  0  0
 41 49  2  0  0  0  0
 42 49  1  0  0  0  0
 43 51  2  0  0  0  0
 44 52  1  0  0  0  0
 45 50  2  0  0  0  0
 46 53  1  0  0  0  0
 47 50  1  0  0  0  0
 47 53  2  0  0  0  0
 48 62  1  0  0  0  0
 49 62  1  0  0  0  0
 50 56  1  0  0  0  0
 51 54  1  0  0  0  0
 51 57  1  0  0  0  0
 52 54  2  0  0  0  0
 52 63  1  0  0  0  0
 53 67  1  0  0  0  0
 54 71  1  0  0  0  0
 55 56  1  0  0  0  0
 55 65  1  0  0  0  0
 55 66  2  0  0  0  0
 57 64  1  0  0  0  0
 58 59  1  0  0  0  0
 58 61  1  0  0  0  0
 59 64  1  0  0  0  0
 60 62  1  0  0  0  0
 60 64  1  0  0  0  0
 61 67  1  0  0  0  0
 63 68  1  0  0  0  0
 63 69  1  0  0  0  0
 63 70  1  0  0  0  0
 64 72  1  0  0  0  0
M  CHG  2  65  -1  64   1
M  END
> <scpdb_id>
3ipq_1

$$$$
