#    Name: 23294
#    Modification time : Wed Aug  9 01:31:43 2017

@<TRIPOS>MOLECULE
23294
   58     0     9     0     0
SMALL
NO_CHARGES


@<TRIPOS>ATOM
      1 O          23.0770   39.7600   -0.2500 O.2       1 ALL2        0.0000 
      2 CA         14.1840   35.2480    7.6150 C.3       2 GLL5        0.0000 
      3 CA         13.8090   33.9930    7.1550 C.3       2 GLL5        0.0000 
      4 CA         12.5600   33.4850    7.4650 C.3       2 GLL5        0.0000 
      5 CA         11.5740   37.5040    9.9320 C.3       2 GLL5        0.0000 
      6 CA         22.8230   39.5090    6.0190 C.3       2 GLL5        0.0000 
      7 CA         22.2030   39.7730    7.3920 C.3       2 GLL5        0.0000 
      8 CA         20.9580   38.9140    7.6050 C.3       2 GLL5        0.0000 
      9 CA         18.3320   38.0840   10.1640 C.3       2 GLL5        0.0000 
     10 CA         16.0990   37.1390    9.3930 C.3       2 GLL5        0.0000 
     11 CA         13.1990   39.3530   10.1260 C.3       2 GLL5        0.0000 
     12 CA         25.5510   39.8950    3.8710 C.3       2 GLL5        0.0000 
     13 CA         24.2140   39.8540    1.8010 C.3       2 GLL5        0.0000 
     14 CA         20.2460   39.2290    8.9230 C.3       2 GLL5        0.0000 
     15 CZ         12.4387   36.7540    9.1630 C.ar      3 PHL6        0.0000 
     16 O          21.8690   41.1440   -2.5390 O.2       4 ALP2        0.0000 
     17 CA         18.3050   34.2380    7.7110 C.3       5 GLP5        0.0000 
     18 CA         15.5080   32.0530    4.3510 C.3       5 GLP5        0.0000 
     19 CA         11.7150   29.7660    9.1570 C.3       5 GLP5        0.0000 
     20 CA          9.1630   40.1140    7.3860 C.3       5 GLP5        0.0000 
     21 CA         24.5930   36.5740    3.5950 C.3       5 GLP5        0.0000 
     22 CA         24.0400   43.0840    9.2690 C.3       5 GLP5        0.0000 
     23 CA         20.9830   34.9520    6.1940 C.3       5 GLP5        0.0000 
     24 CA         21.6170   35.6170   11.7120 C.3       5 GLP5        0.0000 
     25 CA         13.6940   35.1810   12.1600 C.3       5 GLP5        0.0000 
     26 CA         12.6840   35.9870   12.7120 C.3       5 GLP5        0.0000 
     27 CA         15.0280   43.2080   11.0990 C.3       5 GLP5        0.0000 
     28 CA         26.4930   38.7050    7.3170 C.3       5 GLP5        0.0000 
     29 CA         24.9270   43.9700    4.0190 C.3       5 GLP5        0.0000 
     30 CA         25.2850   36.7650    2.4200 C.3       5 GLP5        0.0000 
     31 CA          9.4490   32.7480    4.7220 C.3       5 GLP5        0.0000 
     32 CA         22.5870   36.3310   10.7600 C.3       5 GLP5        0.0000 
     33 CA         20.9420   39.6670   12.7300 C.3       5 GLP5        0.0000 
     34 CA         14.5210   33.0240   11.1010 C.3       5 GLP5        0.0000 
     35 CZ         12.3943   34.7065   12.2433 C.ar      6 PHP6        0.0000 
     36 O          22.4730   40.4520   -1.3945 O.2       7 ALC2        0.0000 
     37 CA         16.2445   34.7430    7.6630 C.3       8 GLC5        0.0000 
     38 CA         14.6585   33.0230    5.7530 C.3       8 GLC5        0.0000 
     39 CA         12.1375   31.6255    8.3110 C.3       8 GLC5        0.0000 
     40 CA         10.3685   38.8090    8.6590 C.3       8 GLC5        0.0000 
     41 CA         23.7080   38.0415    4.8070 C.3       8 GLC5        0.0000 
     42 CA         23.1215   41.4285    8.3305 C.3       8 GLC5        0.0000 
     43 CA         20.9705   36.9330    6.8995 C.3       8 GLC5        0.0000 
     44 CA         19.9745   36.8505   10.9380 C.3       8 GLC5        0.0000 
     45 CA         17.2020   35.6885    8.5520 C.3       8 GLC5        0.0000 
     46 CA         14.8965   36.1600   10.7765 C.3       8 GLC5        0.0000 
     47 CA         12.9415   37.6700   11.4190 C.3       8 GLC5        0.0000 
     48 CA         14.1135   41.2805   10.6125 C.3       8 GLC5        0.0000 
     49 CA         26.0220   39.3000    5.5940 C.3       8 GLC5        0.0000 
     50 CA         25.2390   41.9325    3.9450 C.3       8 GLC5        0.0000 
     51 CA         25.4180   38.3300    3.1455 C.3       8 GLC5        0.0000 
     52 CA         24.7495   38.3095    2.1105 C.3       8 GLC5        0.0000 
     53 CA         10.7862   33.3042    6.2870 C.3       8 GLC5        0.0000 
     54 CA         24.5030   39.1730    7.0113 C.3       8 GLC5        0.0000 
     55 CA         21.5945   37.7013    9.5120 C.3       8 GLC5        0.0000 
     56 CA         19.9309   39.1096   11.1326 C.3       8 GLC5        0.0000 
     57 CA         13.6020   33.6954    9.4769 C.3       8 GLC5        0.0000 
     58 CZ         12.4165   35.7302   10.7032 C.ar      9 PHC6        0.0000 
@<TRIPOS>BOND
@<TRIPOS>SUBSTRUCTURE
     1 ALL2        1 GROUP        1 Z    ALL  0     ROOT ALL Z 1
     2 GLL5        2 GROUP        1 Z    GLL  0     **** GLL Z 4
     3 PHL6       15 GROUP        1 Z    PHL  0     **** PHL Z 6
     4 ALP2       16 GROUP        1 Z    ALP  0     **** ALP Z 8
     5 GLP5       17 GROUP        1 Z    GLP  0     **** GLP Z 11
     6 PHP6       35 GROUP        1 Z    PHP  0     **** PHP Z 13
     7 ALC2       36 GROUP        1 Z    ALC  0     **** ALC Z 15
     8 GLC5       37 GROUP        1 Z    GLC  0     **** GLC Z 18
     9 PHC6       58 GROUP        1 Z    PHC  0     **** PHC Z 20
@<TRIPOS>SET

