3br2_DEQ_1_ligand
  -OEChem-08111718373D

 74 77  0     1  0  0  0  0  0999 V2000
   12.2880   32.5817    7.1331 H   0  0  0  0  0  0  0  0  0  0  0  0
   18.6876   41.2227    1.2160 H   0  0  0  0  0  0  0  0  0  0  0  0
   14.4426   33.4553    6.5987 H   0  0  0  0  0  0  0  0  0  0  0  0
   18.7773   41.6630    3.5661 H   0  0  0  0  0  0  0  0  0  0  0  0
   10.7849   33.8675    8.4636 H   0  0  0  0  0  0  0  0  0  0  0  0
   20.6443   40.4732    0.0725 H   0  0  0  0  0  0  0  0  0  0  0  0
   15.0891   35.6049    7.3839 H   0  0  0  0  0  0  0  0  0  0  0  0
   20.8132   41.3402    4.7629 H   0  0  0  0  0  0  0  0  0  0  0  0
   10.9562   38.0584   10.4896 H   0  0  0  0  0  0  0  0  0  0  0  0
   25.0435   39.5430    1.3372 H   0  0  0  0  0  0  0  0  0  0  0  0
   14.1234   39.5876    9.8252 H   0  0  0  0  0  0  0  0  0  0  0  0
   12.5520   40.0290    9.7732 H   0  0  0  0  0  0  0  0  0  0  0  0
   13.1647   39.3487   11.1254 H   0  0  0  0  0  0  0  0  0  0  0  0
   26.2369   39.5814    3.2144 H   0  0  0  0  0  0  0  0  0  0  0  0
   25.8523   40.7551    4.2826 H   0  0  0  0  0  0  0  0  0  0  0  0
   25.4347   39.2059    4.5863 H   0  0  0  0  0  0  0  0  0  0  0  0
   18.6256   38.2042    8.1090 H   0  0  0  0  0  0  0  0  0  0  0  0
   18.2073   39.6322    8.7816 H   0  0  0  0  0  0  0  0  0  0  0  0
   20.3003   40.2130    9.0926 H   0  0  0  0  0  0  0  0  0  0  0  0
   20.7042   38.7373    9.6635 H   0  0  0  0  0  0  0  0  0  0  0  0
   18.7554   38.5331   10.9508 H   0  0  0  0  0  0  0  0  0  0  0  0
   18.6441   37.1353   10.1139 H   0  0  0  0  0  0  0  0  0  0  0  0
   21.2295   37.9516    7.6094 H   0  0  0  0  0  0  0  0  0  0  0  0
   20.3226   39.0777    6.8503 H   0  0  0  0  0  0  0  0  0  0  0  0
   16.4766   39.0189   10.1975 H   0  0  0  0  0  0  0  0  0  0  0  0
   16.6082   37.8146   11.2925 H   0  0  0  0  0  0  0  0  0  0  0  0
   21.9492   40.7381    7.4561 H   0  0  0  0  0  0  0  0  0  0  0  0
   22.8744   39.5571    8.1009 H   0  0  0  0  0  0  0  0  0  0  0  0
   15.6661   36.4158    9.9311 H   0  0  0  0  0  0  0  0  0  0  0  0
   16.7811   36.7371    8.7821 H   0  0  0  0  0  0  0  0  0  0  0  0
   23.6398   38.9459    6.1449 H   0  0  0  0  0  0  0  0  0  0  0  0
   22.1574   39.0112    5.4629 H   0  0  0  0  0  0  0  0  0  0  0  0
   15.0149   38.7975    8.7195 H   0  0  0  0  0  0  0  0  0  0  0  0
   15.2210   37.6598    7.5662 H   0  0  0  0  0  0  0  0  0  0  0  0
   22.6109   41.5291    5.5215 H   0  0  0  0  0  0  0  0  0  0  0  0
   24.1650   41.0278    5.5037 H   0  0  0  0  0  0  0  0  0  0  0  0
    9.3435   36.4129   10.3923 H   0  0  0  0  0  0  0  0  0  0  0  0
    9.6075   34.9363    9.5263 H   0  0  0  0  0  0  0  0  0  0  0  0
   23.9271   39.4495   -0.6753 H   0  0  0  0  0  0  0  0  0  0  0  0
   22.2527   39.8731   -0.8047 H   0  0  0  0  0  0  0  0  0  0  0  0
   12.5600   33.4850    7.4650 C   0  0  0  0  0  0  0  0  0  0  0  0
   19.5420   41.0920    1.7190 C   0  0  0  0  0  0  0  0  0  0  0  0
   13.8090   33.9930    7.1550 C   0  0  0  0  0  0  0  0  0  0  0  0
   19.5940   41.3460    3.0840 C   0  0  0  0  0  0  0  0  0  0  0  0
   11.6870   34.2360    8.2390 C   0  0  0  0  0  0  0  0  0  0  0  0
   20.6840   40.6550    1.0550 C   0  0  0  0  0  0  0  0  0  0  0  0
   14.1840   35.2480    7.6150 C   0  0  0  0  0  0  0  0  0  0  0  0
   20.7870   41.1580    3.7800 C   0  0  0  0  0  0  0  0  0  0  0  0
   11.5740   37.5040    9.9320 C   0  0  0  0  0  0  0  0  0  0  0  0
   24.2140   39.8540    1.8010 C   0  0  0  0  0  0  0  0  0  0  0  0
   12.0520   35.5010    8.7090 C   0  0  0  0  0  0  0  0  0  0  0  0
   21.8910   40.4660    1.7460 C   0  0  0  0  0  0  0  0  0  0  0  0
   13.3170   36.0250    8.3980 C   0  0  0  0  0  0  0  0  0  0  0  0
   21.9570   40.7170    3.1300 C   0  0  0  0  0  0  0  0  0  0  0  0
   11.1730   36.2550    9.4870 C   0  0  0  0  0  0  0  0  0  0  0  0
   23.0420   40.0280    1.0800 C   0  0  0  0  0  0  0  0  0  0  0  0
   12.8320   37.9850    9.6040 C   0  0  0  0  0  0  0  0  0  0  0  0
   24.2380   40.1100    3.1620 C   0  0  0  0  0  0  0  0  0  0  0  0
   13.1990   39.3530   10.1260 C   0  0  0  0  0  0  0  0  0  0  0  0
   25.5510   39.8950    3.8710 C   0  0  0  0  0  0  0  0  0  0  0  0
   18.7690   38.8120    8.8900 C   0  0  2  0  0  0  0  0  0  0  0  0
   20.2460   39.2290    8.9230 C   0  0  1  0  0  0  0  0  0  0  0  0
   18.3320   38.0840   10.1640 C   0  0  2  0  0  0  0  0  0  0  0  0
   20.9580   38.9140    7.6050 C   0  0  1  0  0  0  0  0  0  0  0  0
   16.8150   38.0910   10.3540 C   0  0  2  0  0  0  0  0  0  0  0  0
   22.2030   39.7730    7.3920 C   0  0  1  0  0  0  0  0  0  0  0  0
   16.0990   37.1390    9.3930 C   0  0  2  0  0  0  0  0  0  0  0  0
   22.8230   39.5090    6.0190 C   0  0  1  0  0  0  0  0  0  0  0  0
   15.0180   37.8150    8.5330 C   0  0  1  0  0  0  0  0  0  0  0  0
   23.2250   40.7820    5.2670 C   0  0  1  0  0  0  0  0  0  0  0  0
   13.6840   37.2540    8.8480 N   0  3  0  0  0  0  0  0  0  0  0  0
   23.1290   40.5360    3.8100 N   0  3  0  0  0  0  0  0  0  0  0  0
    9.9330   35.8310    9.8320 N   0  0  0  0  0  0  0  0  0  0  0  0
   23.0770   39.7600   -0.2500 N   0  0  0  0  0  0  0  0  0  0  0  0
  1 41  1  0  0  0  0
  2 42  1  0  0  0  0
  3 43  1  0  0  0  0
  4 44  1  0  0  0  0
  5 45  1  0  0  0  0
  6 46  1  0  0  0  0
  7 47  1  0  0  0  0
  8 48  1  0  0  0  0
  9 49  1  0  0  0  0
 10 50  1  0  0  0  0
 11 59  1  0  0  0  0
 12 59  1  0  0  0  0
 13 59  1  0  0  0  0
 14 60  1  0  0  0  0
 15 60  1  0  0  0  0
 16 60  1  0  0  0  0
 17 61  1  0  0  0  0
 18 61  1  0  0  0  0
 19 62  1  0  0  0  0
 20 62  1  0  0  0  0
 21 63  1  0  0  0  0
 22 63  1  0  0  0  0
 23 64  1  0  0  0  0
 24 64  1  0  0  0  0
 25 65  1  0  0  0  0
 26 65  1  0  0  0  0
 27 66  1  0  0  0  0
 28 66  1  0  0  0  0
 29 67  1  0  0  0  0
 30 67  1  0  0  0  0
 31 68  1  0  0  0  0
 32 68  1  0  0  0  0
 33 69  1  0  0  0  0
 34 69  1  0  0  0  0
 35 70  1  0  0  0  0
 36 70  1  0  0  0  0
 37 73  1  0  0  0  0
 38 73  1  0  0  0  0
 39 74  1  0  0  0  0
 40 74  1  0  0  0  0
 41 43  1  0  0  0  0
 41 45  2  0  0  0  0
 42 44  1  0  0  0  0
 42 46  2  0  0  0  0
 43 47  2  0  0  0  0
 44 48  2  0  0  0  0
 45 51  1  0  0  0  0
 46 52  1  0  0  0  0
 47 53  1  0  0  0  0
 48 54  1  0  0  0  0
 49 55  2  0  0  0  0
 49 57  1  0  0  0  0
 50 56  2  0  0  0  0
 50 58  1  0  0  0  0
 51 53  2  0  0  0  0
 51 55  1  0  0  0  0
 52 54  2  0  0  0  0
 52 56  1  0  0  0  0
 53 71  1  0  0  0  0
 54 72  1  0  0  0  0
 55 73  1  0  0  0  0
 56 74  1  0  0  0  0
 57 59  1  0  0  0  0
 57 71  2  0  0  0  0
 58 60  1  0  0  0  0
 58 72  2  0  0  0  0
 61 62  1  0  0  0  0
 61 63  1  0  0  0  0
 62 64  1  0  0  0  0
 63 65  1  0  0  0  0
 64 66  1  0  0  0  0
 65 67  1  0  0  0  0
 66 68  1  0  0  0  0
 67 69  1  0  0  0  0
 68 70  1  0  0  0  0
 69 71  1  0  0  0  0
 70 72  1  0  0  0  0
M  CHG  2  71   1  72   1
M  END
> <scpdb_id>
3br2_1

$$$$
