#    Name: 18990
#    Modification time : Tue Aug  8 22:42:09 2017

@<TRIPOS>MOLECULE
18990
   26     0     6     0     0
SMALL
NO_CHARGES


@<TRIPOS>ATOM
      1 N           3.5660   33.4430   13.0480 N.am      1 SEL1        0.0000 
      2 CA          1.6830   33.7500   14.5780 C.3       2 GLL5        0.0000 
      3 CA         -1.6350   36.6150   15.4990 C.3       2 GLL5        0.0000 
      4 CA          0.3650   39.5750   11.9940 C.3       2 GLL5        0.0000 
      5 CA          0.4580   35.9620   14.2100 C.3       2 GLL5        0.0000 
      6 CA         -0.9190   36.6370   14.1370 C.3       2 GLL5        0.0000 
      7 CA         -1.3340   40.4280   13.4620 C.3       2 GLL5        0.0000 
      8 CA         -1.5030   39.1480   14.0030 C.3       2 GLL5        0.0000 
      9 N           3.8000   30.2000   11.8560 N.am      3 SEP1        0.0000 
     10 CA          4.4140   35.5710   16.5620 C.3       4 GLP5        0.0000 
     11 CA          2.2750   36.5720   17.5570 C.3       4 GLP5        0.0000 
     12 CA          3.8650   40.4420   14.2550 C.3       4 GLP5        0.0000 
     13 CA         -2.8810   35.6490   10.5120 C.3       4 GLP5        0.0000 
     14 CA         -0.1400   39.0540   17.3510 C.3       4 GLP5        0.0000 
     15 CA         -0.5160   44.6350   14.4650 C.3       4 GLP5        0.0000 
     16 CA         -3.4490   39.4130   10.6760 C.3       4 GLP5        0.0000 
     17 N           3.6830   31.8215   12.4520 N.am      5 SEC1        0.0000 
     18 CA          3.0485   34.6605   15.5700 C.3       6 GLC5        0.0000 
     19 CA          0.3200   36.5935   16.5280 C.3       6 GLC5        0.0000 
     20 CA          2.1150   40.0085   13.1245 C.3       6 GLC5        0.0000 
     21 CA          1.3400   35.9008   16.0085 C.3       6 GLC5        0.0000 
     22 CA         -1.8545   36.5005   12.1790 C.3       6 GLC5        0.0000 
     23 CA         -0.5364   37.7556   16.0936 C.3       6 GLC5        0.0000 
     24 CA         -0.6918   42.5862   13.7105 C.3       6 GLC5        0.0000 
     25 CA         -0.6835   39.2859   15.4857 C.3       6 GLC5        0.0000 
     26 CA         -2.0567   39.4526   11.8675 C.3       6 GLC5        0.0000 
@<TRIPOS>BOND
@<TRIPOS>SUBSTRUCTURE
     1 SEL1        1 GROUP        1 Z    SEL  0     ROOT SEL Z 0
     2 GLL5        2 GROUP        1 Z    GLL  0     **** GLL Z 4
     3 SEP1        9 GROUP        1 Z    SEP  0     **** SEP Z 7
     4 GLP5       10 GROUP        1 Z    GLP  0     **** GLP Z 11
     5 SEC1       17 GROUP        1 Z    SEC  0     **** SEC Z 14
     6 GLC5       18 GROUP        1 Z    GLC  0     **** GLC Z 18
@<TRIPOS>SET

