2uxo_TAC_1_ligand
  -OEChem-08111718373D

 54 57  0     1  0  0  0  0  0999 V2000
   -1.8855   41.1891   13.8034 H   0  0  0  0  0  0  0  0  0  0  0  0
   -2.1830   39.0041   14.7220 H   0  0  0  0  0  0  0  0  0  0  0  0
   -0.2828   41.5589   12.0570 H   0  0  0  0  0  0  0  0  0  0  0  0
    0.0786   34.5028   15.6719 H   0  0  0  0  0  0  0  0  0  0  0  0
   -0.3411   34.0203   14.1693 H   0  0  0  0  0  0  0  0  0  0  0  0
    1.0158   36.4712   14.8654 H   0  0  0  0  0  0  0  0  0  0  0  0
    0.9917   32.4186   16.0331 H   0  0  0  0  0  0  0  0  0  0  0  0
    2.3613   34.2991   15.0662 H   0  0  0  0  0  0  0  0  0  0  0  0
   -2.5258   37.0616   15.4146 H   0  0  0  0  0  0  0  0  0  0  0  0
   -1.7635   35.6678   15.7928 H   0  0  0  0  0  0  0  0  0  0  0  0
   -1.0810   37.1013   16.1747 H   0  0  0  0  0  0  0  0  0  0  0  0
    3.7351   30.5217   17.1792 H   0  0  0  0  0  0  0  0  0  0  0  0
    2.1934   30.9254   17.5352 H   0  0  0  0  0  0  0  0  0  0  0  0
    2.5104   29.9615   16.2557 H   0  0  0  0  0  0  0  0  0  0  0  0
    4.2143   32.6227   17.3508 H   0  0  0  0  0  0  0  0  0  0  0  0
    3.4720   33.8022   16.4996 H   0  0  0  0  0  0  0  0  0  0  0  0
    2.6452   32.9726   17.6375 H   0  0  0  0  0  0  0  0  0  0  0  0
    0.0528   28.1666   12.2437 H   0  0  0  0  0  0  0  0  0  0  0  0
    0.4297   28.9485   13.7426 H   0  0  0  0  0  0  0  0  0  0  0  0
   -2.5449   35.5670   13.6675 H   0  0  0  0  0  0  0  0  0  0  0  0
    4.0619   34.1469   13.5566 H   0  0  0  0  0  0  0  0  0  0  0  0
   -1.3340   40.4280   13.4620 C   0  0  0  0  0  0  0  0  0  0  0  0
   -1.5030   39.1480   14.0030 C   0  0  0  0  0  0  0  0  0  0  0  0
   -0.4010   40.6470   12.4500 C   0  0  0  0  0  0  0  0  0  0  0  0
    0.1990   38.2900   12.5370 C   0  0  0  0  0  0  0  0  0  0  0  0
   -0.7370   38.0670   13.5550 C   0  0  0  0  0  0  0  0  0  0  0  0
    0.3650   39.5750   11.9940 C   0  0  0  0  0  0  0  0  0  0  0  0
    0.9720   37.2260   12.0580 C   0  0  0  0  0  0  0  0  0  0  0  0
    1.0470   31.3920   12.9160 C   0  0  0  0  0  0  0  0  0  0  0  0
    1.1390   36.0650   12.8240 C   0  0  0  0  0  0  0  0  0  0  0  0
    1.5040   32.5620   12.2810 C   0  0  0  0  0  0  0  0  0  0  0  0
    1.9210   35.0170   12.3250 C   0  0  0  0  0  0  0  0  0  0  0  0
    1.1140   31.2560   14.3220 C   0  0  0  0  0  0  0  0  0  0  0  0
    0.4630   30.2280   12.0660 C   0  0  0  0  0  0  0  0  0  0  0  0
    0.3520   34.4970   14.7100 C   0  0  1  0  0  0  0  0  0  0  0  0
    0.4580   35.9620   14.2100 C   0  0  2  0  0  0  0  0  0  0  0  0
    1.6580   32.3450   15.2910 C   0  0  2  0  0  0  0  0  0  0  0  0
    1.6830   33.7500   14.5780 C   0  0  1  0  0  0  0  0  0  0  0  0
   -0.9190   36.6370   14.1370 C   0  0  1  0  0  0  0  0  0  0  0  0
    2.1320   33.7220   13.1020 C   0  0  1  0  0  0  0  0  0  0  0  0
   -1.6350   36.6150   15.4990 C   0  0  0  0  0  0  0  0  0  0  0  0
    2.8380   30.7380   16.7940 C   0  0  0  0  0  0  0  0  0  0  0  0
    3.3520   32.9090   16.9330 C   0  0  0  0  0  0  0  0  0  0  0  0
    0.2989   28.9918   12.7521 N   0  0  0  0  0  0  0  0  0  0  0  0
    2.9490   31.9280   15.9250 N   0  3  2  0  0  0  0  0  0  0  0  0
    1.5110   37.3150   10.9490 O   0  0  0  0  0  0  0  0  0  0  0  0
    0.6390   30.1130   14.8830 O   0  0  0  0  0  0  0  0  0  0  0  0
    0.2678   30.5838   10.7279 O   0  0  0  0  0  0  0  0  0  0  0  0
    1.2770   39.7850   11.0050 O   0  5  0  0  0  0  0  0  0  0  0  0
    1.4170   32.6400   10.9970 O   0  5  0  0  0  0  0  0  0  0  0  0
    2.5210   35.0980   11.1020 O   0  5  0  0  0  0  0  0  0  0  0  0
   -1.7320   35.9170   13.2020 O   0  0  0  0  0  0  0  0  0  0  0  0
    3.5660   33.4430   13.0480 O   0  0  0  0  0  0  0  0  0  0  0  0
    3.6606   31.8038   15.2335 H   0  0  0  0  0  0  0  0  0  0  0  0
  1 22  1  0  0  0  0
  2 23  1  0  0  0  0
  3 24  1  0  0  0  0
  4 35  1  0  0  0  0
  5 35  1  0  0  0  0
  6 36  1  0  0  0  0
  7 37  1  0  0  0  0
  8 38  1  0  0  0  0
  9 41  1  0  0  0  0
 10 41  1  0  0  0  0
 11 41  1  0  0  0  0
 12 42  1  0  0  0  0
 13 42  1  0  0  0  0
 14 42  1  0  0  0  0
 15 43  1  0  0  0  0
 16 43  1  0  0  0  0
 17 43  1  0  0  0  0
 18 44  1  0  0  0  0
 19 44  1  0  0  0  0
 20 52  1  0  0  0  0
 21 53  1  0  0  0  0
 22 23  1  0  0  0  0
 22 24  2  0  0  0  0
 23 26  2  0  0  0  0
 24 27  1  0  0  0  0
 25 26  1  0  0  0  0
 25 27  2  0  0  0  0
 25 28  1  0  0  0  0
 26 39  1  0  0  0  0
 27 49  1  0  0  0  0
 28 30  1  0  0  0  0
 28 46  2  0  0  0  0
 29 31  2  0  0  0  0
 29 33  1  0  0  0  0
 29 34  1  0  0  0  0
 30 32  2  0  0  0  0
 30 36  1  0  0  0  0
 31 40  1  0  0  0  0
 31 50  1  0  0  0  0
 32 40  1  0  0  0  0
 32 51  1  0  0  0  0
 33 37  1  0  0  0  0
 33 47  2  0  0  0  0
 34 44  1  0  0  0  0
 34 48  2  0  0  0  0
 35 36  1  0  0  0  0
 35 38  1  0  0  0  0
 36 39  1  0  0  0  0
 37 38  1  0  0  0  0
 37 45  1  0  0  0  0
 38 40  1  0  0  0  0
 39 41  1  0  0  0  0
 39 52  1  0  0  0  0
 40 53  1  0  0  0  0
 42 45  1  0  0  0  0
 43 45  1  0  0  0  0
 45 54  1  0  0  0  0
M  CHG  4  50  -1  45   1  49  -1  51  -1
M  END
> <scpdb_id>
2uxo_1

$$$$
