#    Name: 20653
#    Modification time : Tue Aug  8 18:58:25 2017

@<TRIPOS>MOLECULE
20653
   34     0     9     0     0
SMALL
NO_CHARGES


@<TRIPOS>ATOM
      1 N          19.4660   32.6590   36.7020 N.am      1 SEL1        0.0000 
      2 O          22.1250   33.2180   37.2800 O.2       2 ALL2        0.0000 
      3 CA         22.1190   35.0990   35.5330 C.3       3 GLL5        0.0000 
      4 CA         21.7930   36.5740   35.8480 C.3       3 GLL5        0.0000 
      5 CA         22.5140   37.5650   34.9300 C.3       3 GLL5        0.0000 
      6 CA         22.4960   39.5140   36.6550 C.3       3 GLL5        0.0000 
      7 CA         25.5790   39.1210   34.9130 C.3       3 GLL5        0.0000 
      8 CA         22.1270   40.5680   33.4150 C.3       3 GLL5        0.0000 
      9 CA         22.1590   37.1670   33.5170 C.3       3 GLL5        0.0000 
     10 CA         22.5650   41.3720   32.3710 C.3       3 GLL5        0.0000 
     11 N          18.7035   35.1855   38.4264 N.am      4 SEP1        0.0000 
     12 N          19.6280   29.8310   35.2560 N.am      4 SEP1        0.0000 
     13 N          19.4750   30.3940   38.5670 N.am      4 SEP1        0.0000 
     14 O          21.2280   31.6260   39.2050 O.2       5 ALP2        0.0000 
     15 CA         26.3310   35.7270   36.0360 C.3       6 GLP5        0.0000 
     16 CA         22.5260   37.7960   39.6940 C.3       6 GLP5        0.0000 
     17 CA         22.3260   42.9550   39.1370 C.3       6 GLP5        0.0000 
     18 CA         26.9140   40.4680   38.5770 C.3       6 GLP5        0.0000 
     19 CA         18.6110   38.7940   31.4690 C.3       6 GLP5        0.0000 
     20 CA         21.9450   43.7070   29.2290 C.3       6 GLP5        0.0000 
     21 N          19.0847   33.9222   37.5642 N.am      7 SEC1        0.0000 
     22 N          19.5470   31.2450   35.9790 N.am      7 SEC1        0.0000 
     23 N          19.4705   31.5265   37.6345 N.am      7 SEC1        0.0000 
     24 O          21.6765   32.4220   38.2425 O.2       8 ALC2        0.0000 
     25 CA         24.2250   35.4130   35.7845 C.3       9 GLC5        0.0000 
     26 CA         22.1595   37.1850   37.7710 C.3       9 GLC5        0.0000 
     27 CA         24.4225   36.6460   35.4830 C.3       9 GLC5        0.0000 
     28 CA         22.4110   41.2345   37.8960 C.3       9 GLC5        0.0000 
     29 CA         22.5110   38.6550   38.1745 C.3       9 GLC5        0.0000 
     30 CA         26.2465   39.7945   36.7450 C.3       9 GLC5        0.0000 
     31 CA         25.9550   37.4240   35.4745 C.3       9 GLC5        0.0000 
     32 CA         20.3690   39.6810   32.4420 C.3       9 GLC5        0.0000 
     33 CA         20.3850   37.9805   32.4930 C.3       9 GLC5        0.0000 
     34 CA         22.5978   42.5730   30.7387 C.3       9 GLC5        0.0000 
@<TRIPOS>BOND
@<TRIPOS>SUBSTRUCTURE
     1 SEL1        1 GROUP        1 Z    SEL  0     ROOT SEL Z 0
     2 ALL2        2 GROUP        1 Z    ALL  0     **** ALL Z 1
     3 GLL5        3 GROUP        1 Z    GLL  0     **** GLL Z 4
     4 SEP1       11 GROUP        1 Z    SEP  0     **** SEP Z 7
     5 ALP2       14 GROUP        1 Z    ALP  0     **** ALP Z 8
     6 GLP5       15 GROUP        1 Z    GLP  0     **** GLP Z 11
     7 SEC1       21 GROUP        1 Z    SEC  0     **** SEC Z 14
     8 ALC2       24 GROUP        1 Z    ALC  0     **** ALC Z 15
     9 GLC5       25 GROUP        1 Z    GLC  0     **** GLC Z 18
@<TRIPOS>SET

