2x9d_ITC_1_ligand
  -OEChem-08111718373D

 55 58  0     1  0  0  0  0  0999 V2000
   24.2591   42.0940   31.3845 H   0  0  0  0  0  0  0  0  0  0  0  0
   25.8344   40.9063   32.7622 H   0  0  0  0  0  0  0  0  0  0  0  0
   22.6478   37.7675   32.8842 H   0  0  0  0  0  0  0  0  0  0  0  0
   21.1736   37.2817   33.3914 H   0  0  0  0  0  0  0  0  0  0  0  0
   22.0617   36.7634   36.7924 H   0  0  0  0  0  0  0  0  0  0  0  0
   20.8072   36.7091   35.7484 H   0  0  0  0  0  0  0  0  0  0  0  0
   20.9517   34.8119   37.1911 H   0  0  0  0  0  0  0  0  0  0  0  0
   23.4962   37.4156   35.0435 H   0  0  0  0  0  0  0  0  0  0  0  0
   23.0935   34.9543   35.7046 H   0  0  0  0  0  0  0  0  0  0  0  0
   22.2920   40.4894   36.7386 H   0  0  0  0  0  0  0  0  0  0  0  0
   21.9085   38.9961   37.2768 H   0  0  0  0  0  0  0  0  0  0  0  0
   23.4545   39.3526   36.8901 H   0  0  0  0  0  0  0  0  0  0  0  0
   23.5896   31.8099   37.1211 H   0  0  0  0  0  0  0  0  0  0  0  0
   22.6200   31.8964   35.8099 H   0  0  0  0  0  0  0  0  0  0  0  0
   23.7522   33.0451   36.0654 H   0  0  0  0  0  0  0  0  0  0  0  0
   23.2756   33.3046   38.9430 H   0  0  0  0  0  0  0  0  0  0  0  0
   23.3035   34.6720   38.0508 H   0  0  0  0  0  0  0  0  0  0  0  0
   22.0000   34.3238   38.9708 H   0  0  0  0  0  0  0  0  0  0  0  0
   16.8652   33.1905   32.7950 H   0  0  0  0  0  0  0  0  0  0  0  0
   18.1297   34.3503   32.5584 H   0  0  0  0  0  0  0  0  0  0  0  0
   23.4675   33.6445   33.9310 H   0  0  0  0  0  0  0  0  0  0  0  0
   23.9360   41.5060   32.1260 C   0  0  0  0  0  0  0  0  0  0  0  0
   24.8520   40.8130   32.9240 C   0  0  0  0  0  0  0  0  0  0  0  0
   22.1270   40.5680   33.4150 C   0  0  0  0  0  0  0  0  0  0  0  0
   23.0000   39.8800   34.1990 C   0  0  0  0  0  0  0  0  0  0  0  0
   22.5650   41.3720   32.3710 C   0  0  0  0  0  0  0  0  0  0  0  0
   24.3800   39.9870   33.9520 C   0  0  0  0  0  0  0  0  0  0  0  0
   20.7430   40.2950   33.8070 C   0  0  0  0  0  0  0  0  0  0  0  0
   19.5870   33.8060   34.6670 C   0  0  0  0  0  0  0  0  0  0  0  0
   20.0990   33.5240   35.9060 C   0  0  0  0  0  0  0  0  0  0  0  0
   20.3340   34.7080   33.8070 C   0  0  0  0  0  0  0  0  0  0  0  0
   22.4850   35.8800   33.2320 C   0  0  0  0  0  0  0  0  0  0  0  0
   18.3180   33.1890   34.2120 C   0  0  0  0  0  0  0  0  0  0  0  0
   22.1590   37.1670   33.5170 C   0  0  1  0  0  0  0  0  0  0  0  0
   21.7930   36.5740   35.8480 C   0  0  1  0  0  0  0  0  0  0  0  0
   21.3190   34.1850   36.5040 C   0  0  2  0  0  0  0  0  0  0  0  0
   22.5140   37.5650   34.9300 C   0  0  2  0  0  0  0  0  0  0  0  0
   22.1190   35.0990   35.5330 C   0  0  1  0  0  0  0  0  0  0  0  0
   22.2400   39.0600   35.2130 C   0  0  1  0  0  0  0  0  0  0  0  0
   21.8490   34.8010   34.0540 C   0  0  1  0  0  0  0  0  0  0  0  0
   22.4960   39.5140   36.6550 C   0  0  0  0  0  0  0  0  0  0  0  0
   23.1000   32.4290   36.5070 C   0  0  0  0  0  0  0  0  0  0  0  0
   22.7230   33.9360   38.3990 C   0  0  0  0  0  0  0  0  0  0  0  0
   17.7210   33.6120   33.0950 N   0  0  0  0  0  0  0  0  0  0  0  0
   22.1250   33.2180   37.2800 N   0  3  1  0  0  0  0  0  0  0  0  0
   19.7100   40.7800   33.2080 O   0  0  0  0  0  0  0  0  0  0  0  0
   19.7720   35.3120   32.8670 O   0  0  0  0  0  0  0  0  0  0  0  0
   23.4020   35.5940   32.3380 O   0  0  0  0  0  0  0  0  0  0  0  0
   17.7490   32.3640   34.9200 O   0  0  0  0  0  0  0  0  0  0  0  0
   20.8680   39.3870   34.9430 O   0  0  0  0  0  0  0  0  0  0  0  0
   21.6850   42.0150   31.6200 O   0  5  0  0  0  0  0  0  0  0  0  0
   19.4660   32.6590   36.7020 O   0  5  0  0  0  0  0  0  0  0  0  0
   22.4850   33.5620   33.7640 O   0  0  0  0  0  0  0  0  0  0  0  0
   25.5790   39.1210   34.9130 Cl  0  0  0  0  0  0  0  0  0  0  0  0
   21.4790   32.5634   37.6726 H   0  0  0  0  0  0  0  0  0  0  0  0
  1 22  1  0  0  0  0
  2 23  1  0  0  0  0
  3 34  1  0  0  0  0
  4 34  1  0  0  0  0
  5 35  1  0  0  0  0
  6 35  1  0  0  0  0
  7 36  1  0  0  0  0
  8 37  1  0  0  0  0
  9 38  1  0  0  0  0
 10 41  1  0  0  0  0
 11 41  1  0  0  0  0
 12 41  1  0  0  0  0
 13 42  1  0  0  0  0
 14 42  1  0  0  0  0
 15 42  1  0  0  0  0
 16 43  1  0  0  0  0
 17 43  1  0  0  0  0
 18 43  1  0  0  0  0
 19 44  1  0  0  0  0
 20 44  1  0  0  0  0
 21 53  1  0  0  0  0
 22 23  2  0  0  0  0
 22 26  1  0  0  0  0
 23 27  1  0  0  0  0
 24 25  1  0  0  0  0
 24 26  2  0  0  0  0
 24 28  1  0  0  0  0
 25 27  2  0  0  0  0
 25 39  1  0  0  0  0
 26 51  1  0  0  0  0
 27 54  1  0  0  0  0
 28 46  2  0  0  0  0
 28 50  1  0  0  0  0
 29 30  2  0  0  0  0
 29 31  1  0  0  0  0
 29 33  1  0  0  0  0
 30 36  1  0  0  0  0
 30 52  1  0  0  0  0
 31 40  1  0  0  0  0
 31 47  2  0  0  0  0
 32 34  1  0  0  0  0
 32 40  1  0  0  0  0
 32 48  2  0  0  0  0
 33 44  1  0  0  0  0
 33 49  2  0  0  0  0
 34 37  1  0  0  0  0
 35 37  1  0  0  0  0
 35 38  1  0  0  0  0
 36 38  1  0  0  0  0
 36 45  1  0  0  0  0
 37 39  1  0  0  0  0
 38 40  1  0  0  0  0
 39 41  1  0  0  0  0
 39 50  1  0  0  0  0
 40 53  1  0  0  0  0
 42 45  1  0  0  0  0
 43 45  1  0  0  0  0
 45 55  1  0  0  0  0
M  CHG  3  52  -1  45   1  51  -1
M  END
> <scpdb_id>
2x9d_1

$$$$
