@<TRIPOS>MOLECULE
2zno_S44_1_ligand
   67    71     1     0     0
SMALL
NO_CHARGES


@<TRIPOS>ATOM
     1 O33         17.2430    65.8220    18.1190 O.co2        1 S44901   0.0000
     2 O34         18.2290    64.1480    19.2700 O.co2        1 S44901  -1.0000
     3 C1          18.0520    64.7490    18.2020 C.2          1 S44901   0.0000
     4 C2          18.6040    64.4830    16.9580 C.3          1 S44901   0.0000
     5 C3          20.1250    64.3400    17.0330 C.3          1 S44901   0.0000
     6 C4          20.7640    65.6000    17.5860 C.3          1 S44901   0.0000
     7 C5          17.9590    63.2230    16.3690 C.3          1 S44901   0.0000
     8 C6          17.9100    63.2930    14.8550 C.ar         1 S44901   0.0000
     9 C7          16.7510    63.8600    14.1530 C.ar         1 S44901   0.0000
    10 C8          16.7400    63.9060    12.6840 C.ar         1 S44901   0.0000
    11 C9          17.8630    63.3930    11.9430 C.ar         1 S44901   0.0000
    12 C10         18.9890    62.8410    12.6480 C.ar         1 S44901   0.0000
    13 C11         19.0210    62.7870    14.0880 C.ar         1 S44901   0.0000
    14 C12         15.5980    64.4600    11.9520 C.3          1 S44901   0.0000
    15 N35         15.9770    65.6280    11.1490 N.am         1 S44901   0.0000
    16 C13         15.0570    66.1410    10.2240 C.2          1 S44901   0.0000
    17 O36         13.9250    65.6630    10.0310 O.2          1 S44901   0.0000
    18 C14         15.5150    67.2340     9.5280 C.ar         1 S44901   0.0000
    19 C15         14.6360    68.3430     9.2590 C.ar         1 S44901   0.0000
    20 C16         15.1140    69.4940     8.5170 C.ar         1 S44901   0.0000
    21 C17         16.4810    69.5390     8.0400 C.ar         1 S44901   0.0000
    22 C18         17.3520    68.4140     8.3250 C.ar         1 S44901   0.0000
    23 C19         16.8690    67.2760     9.0600 C.ar         1 S44901   0.0000
    24 C20         17.0230    70.7260     7.2520 C.3          1 S44901   0.0000
    25 C21         17.5100    70.2590     5.8500 C.3          1 S44901   0.0000
    26 C22         18.0800    71.4570     5.0430 C.3          1 S44901   0.0000
    27 C23         19.2670    72.0690     5.8210 C.3          1 S44901   0.0000
    28 C24         18.7910    72.5670     7.2150 C.3          1 S44901   0.0000
    29 C25         18.2230    71.3650     8.0160 C.3          1 S44901   0.0000
    30 C26         15.9220    71.8190     7.0520 C.3          1 S44901   0.0000
    31 C27         16.4980    73.0200     6.2500 C.3          1 S44901   0.0000
    32 C28         17.6820    73.6350     7.0340 C.3          1 S44901   0.0000
    33 C29         16.9860    72.5250     4.8580 C.3          1 S44901   0.0000
    34 H1          18.3935    65.2515    16.3537 H            1 S44901   0.0000
    35 H2          20.4827    64.1678    16.1152 H            1 S44901   0.0000
    36 H3          20.3519    63.5698    17.6291 H            1 S44901   0.0000
    37 H4          21.7562    65.4812    17.6248 H            1 S44901   0.0000
    38 H5          20.5440    66.3737    16.9919 H            1 S44901   0.0000
    39 H6          20.4131    65.7756    18.5058 H            1 S44901   0.0000
    40 H7          17.0275    63.1369    16.7225 H            1 S44901   0.0000
    41 H8          18.4943    62.4237    16.6420 H            1 S44901   0.0000
    42 H9          15.9728    64.2132    14.6723 H            1 S44901   0.0000
    43 H10         17.8602    63.4203    10.9434 H            1 S44901   0.0000
    44 H11         19.7663    62.4871    12.1278 H            1 S44901   0.0000
    45 H12         19.8148    62.3981    14.5556 H            1 S44901   0.0000
    46 H13         14.8951    64.7334    12.6086 H            1 S44901   0.0000
    47 H14         15.2308    63.7555    11.3446 H            1 S44901   0.0000
    48 H15         16.8764    66.0510    11.2597 H            1 S44901   0.0000
    49 H16         13.6911    68.3192     9.5856 H            1 S44901   0.0000
    50 H17         14.4973    70.2596     8.3340 H            1 S44901   0.0000
    51 H18         18.2998    68.4301     8.0064 H            1 S44901   0.0000
    52 H19         17.4824    66.5084     9.2459 H            1 S44901   0.0000
    53 H20         16.7402    69.8623     5.3499 H            1 S44901   0.0000
    54 H21         18.2250    69.5691     5.9633 H            1 S44901   0.0000
    55 H22         18.3936    71.1396     4.1480 H            1 S44901   0.0000
    56 H23         19.6396    72.8395     5.3038 H            1 S44901   0.0000
    57 H24         19.9764    71.3747     5.9422 H            1 S44901   0.0000
    58 H25         19.5629    72.9655     7.7104 H            1 S44901   0.0000
    59 H26         18.9409    70.6793     8.1358 H            1 S44901   0.0000
    60 H27         17.9125    71.6825     8.9120 H            1 S44901   0.0000
    61 H28         15.6077    72.1389     7.9458 H            1 S44901   0.0000
    62 H29         15.1525    71.4248     6.5496 H            1 S44901   0.0000
    63 H30         15.7854    73.7107     6.1269 H            1 S44901   0.0000
    64 H31         18.0492    74.4144     6.5263 H            1 S44901   0.0000
    65 H32         17.3645    73.9415     7.9314 H            1 S44901   0.0000
    66 H33         16.2163    72.1294     4.3570 H            1 S44901   0.0000
    67 H34         17.3582    73.2967     4.3422 H            1 S44901   0.0000
@<TRIPOS>BOND
     1    1    3      ar
     2    2    3      ar
     3    3    4       1
     4    4    5       1
     5    4    7       1
     6    5    6       1
     7    7    8       1
     8    8    9      ar
     9    8   13      ar
    10    9   10      ar
    11   10   11      ar
    12   10   14       1
    13   11   12      ar
    14   12   13      ar
    15   14   15       1
    16   15   16      am
    17   16   17       2
    18   16   18       1
    19   18   19      ar
    20   18   23      ar
    21   19   20      ar
    22   20   21      ar
    23   21   22      ar
    24   21   24       1
    25   22   23      ar
    26   24   25       1
    27   24   29       1
    28   24   30       1
    29   25   26       1
    30   26   27       1
    31   26   33       1
    32   27   28       1
    33   28   29       1
    34   28   32       1
    35   30   31       1
    36   31   32       1
    37   31   33       1
    38   33   67       1
    39    4   34       1
    40    5   35       1
    41    5   36       1
    42    6   37       1
    43    6   38       1
    44    6   39       1
    45    7   40       1
    46    7   41       1
    47    9   42       1
    48   11   43       1
    49   12   44       1
    50   13   45       1
    51   14   46       1
    52   14   47       1
    53   15   48       1
    54   19   49       1
    55   20   50       1
    56   22   51       1
    57   23   52       1
    58   25   53       1
    59   25   54       1
    60   26   55       1
    61   27   56       1
    62   27   57       1
    63   28   58       1
    64   29   59       1
    65   29   60       1
    66   30   61       1
    67   30   62       1
    68   31   63       1
    69   32   64       1
    70   32   65       1
    71   33   66       1
@<TRIPOS>SUBSTRUCTURE
     1 S44901      1 GROUP             4 A     S44     0 **** S44 A 901
