1w5t_ANP_2_ligand
  -OEChem-08111718373D

 44 46  0     1  0  0  0  0  0999 V2000
   20.9097  -18.5980  -35.9651 H   0  0  0  0  0  0  0  0  0  0  0  0
   25.5996  -15.2229  -33.3683 H   0  0  0  0  0  0  0  0  0  0  0  0
   24.7131  -16.7510  -29.3900 H   0  0  0  0  0  0  0  0  0  0  0  0
   24.4901  -17.6203  -31.5157 H   0  0  0  0  0  0  0  0  0  0  0  0
   23.6440  -14.3418  -29.6896 H   0  0  0  0  0  0  0  0  0  0  0  0
   22.1880  -16.1655  -32.2682 H   0  0  0  0  0  0  0  0  0  0  0  0
   25.7236  -13.6990  -30.8023 H   0  0  0  0  0  0  0  0  0  0  0  0
   25.9632  -14.5429  -29.4249 H   0  0  0  0  0  0  0  0  0  0  0  0
   24.2023  -17.7901  -38.9362 H   0  0  0  0  0  0  0  0  0  0  0  0
   25.3951  -16.8626  -38.0894 H   0  0  0  0  0  0  0  0  0  0  0  0
   29.2092  -13.8809  -28.4254 H   0  0  0  0  0  0  0  0  0  0  0  0
   22.0882  -17.0231  -29.5894 H   0  0  0  0  0  0  0  0  0  0  0  0
   22.9339  -18.9166  -30.6978 H   0  0  0  0  0  0  0  0  0  0  0  0
   21.7660  -18.0880  -35.8840 C   0  0  0  0  0  0  0  0  0  0  0  0
   24.9860  -15.7480  -33.9580 C   0  0  0  0  0  0  0  0  0  0  0  0
   24.2050  -16.7160  -35.7200 C   0  0  0  0  0  0  0  0  0  0  0  0
   23.2890  -16.8420  -34.5960 C   0  0  0  0  0  0  0  0  0  0  0  0
   23.7480  -17.3810  -36.9730 C   0  0  0  0  0  0  0  0  0  0  0  0
   23.9310  -16.3900  -29.8980 C   0  0  1  0  0  0  0  0  0  0  0  0
   23.6710  -17.1480  -31.1900 C   0  0  2  0  0  0  0  0  0  0  0  0
   24.1250  -14.9490  -30.3220 C   0  0  1  0  0  0  0  0  0  0  0  0
   23.1830  -16.1080  -32.1870 C   0  0  2  0  0  0  0  0  0  0  0  0
   25.6090  -14.5880  -30.3590 C   0  0  1  0  0  0  0  0  0  0  0  0
   22.0500  -17.5390  -34.7030 N   0  0  0  0  0  0  0  0  0  0  0  0
   22.5480  -18.0050  -36.9730 N   0  0  0  0  0  0  0  0  0  0  0  0
   25.2700  -16.0210  -35.2660 N   0  0  0  0  0  0  0  0  0  0  0  0
   23.7950  -16.2520  -33.5240 N   0  0  0  0  0  0  0  0  0  0  0  0
   24.5170  -17.3410  -38.1000 N   0  0  0  0  0  0  0  0  0  0  0  0
   29.8550  -13.4670  -29.0670 N   0  0  1  0  0  0  0  0  0  0  0  0
   32.1710  -14.3120  -28.0110 O   0  5  0  0  0  0  0  0  0  0  0  0
   31.9650  -11.8510  -29.0740 O   0  5  0  0  0  0  0  0  0  0  0  0
   30.9540  -13.8800  -31.4950 O   0  5  0  0  0  0  0  0  0  0  0  0
   27.8120  -16.2470  -28.9870 O   0  5  0  0  0  0  0  0  0  0  0  0
   30.8140  -12.3400  -26.7930 O   0  0  0  0  0  0  0  0  0  0  0  0
   30.9630  -15.8820  -29.7980 O   0  0  0  0  0  0  0  0  0  0  0  0
   28.1740  -17.3380  -31.3900 O   0  0  0  0  0  0  0  0  0  0  0  0
   23.5420  -14.8420  -31.6460 O   0  0  0  0  0  0  0  0  0  0  0  0
   22.7470  -16.4110  -29.1520 O   0  0  0  0  0  0  0  0  0  0  0  0
   22.5920  -18.0320  -31.0150 O   0  0  0  0  0  0  0  0  0  0  0  0
   26.3380  -15.5920  -31.1010 O   0  0  0  0  0  0  0  0  0  0  0  0
   28.7190  -14.8720  -30.9490 O   0  0  0  0  0  0  0  0  0  0  0  0
   31.2560  -12.9910  -28.1920 P   0  0  0  0  0  0  0  0  0  0  0  0
   30.1630  -14.5850  -30.3120 P   0  0  1  0  0  0  0  0  0  0  0  0
   27.7690  -16.0870  -30.5510 P   0  0  1  0  0  0  0  0  0  0  0  0
  1 14  1  0  0  0  0
  2 15  1  0  0  0  0
  3 19  1  0  0  0  0
  4 20  1  0  0  0  0
  5 21  1  0  0  0  0
  6 22  1  0  0  0  0
  7 23  1  0  0  0  0
  8 23  1  0  0  0  0
  9 28  1  0  0  0  0
 10 28  1  0  0  0  0
 11 29  1  0  0  0  0
 12 38  1  0  0  0  0
 13 39  1  0  0  0  0
 14 24  1  0  0  0  0
 14 25  2  0  0  0  0
 15 26  2  0  0  0  0
 15 27  1  0  0  0  0
 16 17  1  0  0  0  0
 16 18  2  0  0  0  0
 16 26  1  0  0  0  0
 17 24  2  0  0  0  0
 17 27  1  0  0  0  0
 18 25  1  0  0  0  0
 18 28  1  0  0  0  0
 19 20  1  0  0  0  0
 19 21  1  0  0  0  0
 19 38  1  0  0  0  0
 20 22  1  0  0  0  0
 20 39  1  0  0  0  0
 21 23  1  0  0  0  0
 21 37  1  0  0  0  0
 22 27  1  0  0  0  0
 22 37  1  0  0  0  0
 23 40  1  0  0  0  0
 29 42  1  0  0  0  0
 29 43  1  0  0  0  0
 30 42  1  0  0  0  0
 31 42  1  0  0  0  0
 32 43  1  0  0  0  0
 33 44  1  0  0  0  0
 34 42  2  0  0  0  0
 35 43  2  0  0  0  0
 36 44  2  0  0  0  0
 40 44  1  0  0  0  0
 41 43  1  0  0  0  0
 41 44  1  0  0  0  0
M  CHG  4  30  -1  31  -1  32  -1  33  -1
M  END
> <scpdb_id>
1w5t_2

$$$$
