@<TRIPOS>MOLECULE
3gjw_GJW_1_ligand
   38    41     1     0     0
SMALL
NO_CHARGES


@<TRIPOS>ATOM
     1 C2          50.9960    55.4160     9.0390 C.2          1 GJW351   0.0000
     2 C4          49.5310    55.8580    10.6850 C.2          1 GJW351   0.0000
     3 C6          48.8900    54.1470     9.1360 C.ar         1 GJW351   0.0000
     4 C11         48.2260    52.4890     7.5970 C.ar         1 GJW351   0.0000
     5 C12         47.0480    52.3320     8.2950 C.ar         1 GJW351   0.0000
     6 N22         45.8970    50.1520     8.6260 N.4          1 GJW351   1.0000
     7 C23         44.6160    49.4720     8.3430 C.3          1 GJW351   0.0000
     8 C26         47.0240    49.2100     8.4530 C.3          1 GJW351   0.0000
     9 C1          51.5480    56.4050     9.8230 C.2          1 GJW351   0.0000
    10 N3          49.7880    55.0940     9.5890 N.pl3        1 GJW351   0.0000
    11 C5          50.6220    56.6830    10.8600 C.2          1 GJW351   0.0000
    12 C7          47.7300    53.9910     9.8530 C.ar         1 GJW351   0.0000
    13 N8          47.4730    54.7590    10.9950 N.pl3        1 GJW351   0.0000
    14 C9          48.3310    55.7430    11.4450 C.2          1 GJW351   0.0000
    15 C10         49.1640    53.4030     8.0140 C.ar         1 GJW351   0.0000
    16 C13         46.7960    53.0780     9.4240 C.ar         1 GJW351   0.0000
    17 O20         48.0910    56.4390    12.4190 O.2          1 GJW351   0.0000
    18 C21         46.0300    51.3670     7.8070 C.3          1 GJW351   0.0000
    19 C24         44.8890    48.0220     8.6420 C.3          1 GJW351   0.0000
    20 C25         46.3920    47.8550     8.6730 C.3          1 GJW351   0.0000
    21 H1          51.4032    55.0100     8.2209 H            1 GJW351   0.0000
    22 H2          48.3992    51.9349     6.7828 H            1 GJW351   0.0000
    23 H3          44.3550    49.5929     7.3853 H            1 GJW351   0.0000
    24 H4          43.8900    49.8246     8.9334 H            1 GJW351   0.0000
    25 H5          47.7410    49.3833     9.1282 H            1 GJW351   0.0000
    26 H6          47.4090    49.2791     7.5327 H            1 GJW351   0.0000
    27 H7          52.4357    56.8446     9.6863 H            1 GJW351   0.0000
    28 H8          50.7392    57.3575    11.5889 H            1 GJW351   0.0000
    29 H9          46.6314    54.5875    11.5072 H            1 GJW351   0.0000
    30 H10         50.0220    53.5231     7.5146 H            1 GJW351   0.0000
    31 H11         45.9408    52.9569     9.9279 H            1 GJW351   0.0000
    32 H12         46.2805    51.0918     6.8788 H            1 GJW351   0.0000
    33 H13         45.1439    51.8302     7.7897 H            1 GJW351   0.0000
    34 H14         44.4934    47.4434     7.9287 H            1 GJW351   0.0000
    35 H15         44.4971    47.7739     9.5279 H            1 GJW351   0.0000
    36 H16         46.6736    47.4905     9.5606 H            1 GJW351   0.0000
    37 H17         46.6775    47.2270     7.9490 H            1 GJW351   0.0000
    38 H18         45.8837    50.4342     9.5853 H            1 GJW351   0.0000
@<TRIPOS>BOND
     1    1    9       2
     2    1   10       1
     3    2   10       1
     4    2   11       2
     5    2   14       1
     6    3   10       1
     7    3   12      ar
     8    3   15      ar
     9    4    5      ar
    10    4   15      ar
    11    5   16      ar
    12    5   18       1
    13    6    7       1
    14    6    8       1
    15    6   18       1
    16    7   19       1
    17    8   20       1
    18    9   11       1
    19   12   13       1
    20   12   16      ar
    21   13   14       1
    22   14   17       2
    23   19   20       1
    24    1   21       1
    25    4   22       1
    26    7   23       1
    27    7   24       1
    28    8   25       1
    29    8   26       1
    30    9   27       1
    31   11   28       1
    32   13   29       1
    33   15   30       1
    34   16   31       1
    35   18   32       1
    36   18   33       1
    37   19   34       1
    38   19   35       1
    39   20   36       1
    40   20   37       1
    41    6   38       1
@<TRIPOS>SUBSTRUCTURE
     1 GJW351      1 GROUP             4 A     GJW     0 **** GJW A 351
