2bj4_OHT_1_ligand
  -OEChem-08111718373D

 59 61  0     1  0  0  0  0  0999 V2000
   19.9278   32.4340   26.2095 H   0  0  0  0  0  0  0  0  0  0  0  0
   18.4799   34.0861   27.2041 H   0  0  0  0  0  0  0  0  0  0  0  0
   22.2945   32.6445   26.4373 H   0  0  0  0  0  0  0  0  0  0  0  0
   19.4602   35.9796   28.2815 H   0  0  0  0  0  0  0  0  0  0  0  0
   23.2661   34.5363   27.5337 H   0  0  0  0  0  0  0  0  0  0  0  0
   22.4335   37.3260   32.4376 H   0  0  0  0  0  0  0  0  0  0  0  0
   21.1664   39.2956   29.0376 H   0  0  0  0  0  0  0  0  0  0  0  0
   19.2166   37.4654   31.3561 H   0  0  0  0  0  0  0  0  0  0  0  0
   21.9687   34.4390   30.6364 H   0  0  0  0  0  0  0  0  0  0  0  0
   22.8991   39.4258   33.4678 H   0  0  0  0  0  0  0  0  0  0  0  0
   21.6356   41.3856   30.0563 H   0  0  0  0  0  0  0  0  0  0  0  0
   18.0054   35.9772   32.7821 H   0  0  0  0  0  0  0  0  0  0  0  0
   20.8030   32.9814   32.1382 H   0  0  0  0  0  0  0  0  0  0  0  0
   22.9927   38.4243   26.0203 H   0  0  0  0  0  0  0  0  0  0  0  0
   22.2114   36.9926   25.9389 H   0  0  0  0  0  0  0  0  0  0  0  0
   21.4508   38.3047   26.5444 H   0  0  0  0  0  0  0  0  0  0  0  0
   14.9661   34.7267   36.7240 H   0  0  0  0  0  0  0  0  0  0  0  0
   15.7980   35.2091   35.4042 H   0  0  0  0  0  0  0  0  0  0  0  0
   14.6187   34.0885   35.2615 H   0  0  0  0  0  0  0  0  0  0  0  0
   15.3534   32.4393   37.6135 H   0  0  0  0  0  0  0  0  0  0  0  0
   15.0616   31.7701   36.1528 H   0  0  0  0  0  0  0  0  0  0  0  0
   16.4817   31.4919   36.9094 H   0  0  0  0  0  0  0  0  0  0  0  0
   22.9528   38.3274   28.3822 H   0  0  0  0  0  0  0  0  0  0  0  0
   23.7134   37.0153   27.7767 H   0  0  0  0  0  0  0  0  0  0  0  0
   17.5948   32.1733   34.9950 H   0  0  0  0  0  0  0  0  0  0  0  0
   16.2118   32.5592   34.2170 H   0  0  0  0  0  0  0  0  0  0  0  0
   16.9986   34.6110   33.5934 H   0  0  0  0  0  0  0  0  0  0  0  0
   18.0093   34.7101   34.8721 H   0  0  0  0  0  0  0  0  0  0  0  0
   22.9105   41.8029   33.4173 H   0  0  0  0  0  0  0  0  0  0  0  0
   20.3150   33.2140   26.7010 C   0  0  0  0  0  0  0  0  0  0  0  0
   19.4740   34.1760   27.2650 C   0  0  0  0  0  0  0  0  0  0  0  0
   21.6990   33.3470   26.8270 C   0  0  0  0  0  0  0  0  0  0  0  0
   20.0530   35.2630   27.9140 C   0  0  0  0  0  0  0  0  0  0  0  0
   22.2720   34.4390   27.4850 C   0  0  0  0  0  0  0  0  0  0  0  0
   22.2880   38.1710   31.9230 C   0  0  0  0  0  0  0  0  0  0  0  0
   21.5570   39.3150   29.9580 C   0  0  0  0  0  0  0  0  0  0  0  0
   19.5320   36.5250   31.4830 C   0  0  0  0  0  0  0  0  0  0  0  0
   21.1330   34.7600   31.0820 C   0  0  0  0  0  0  0  0  0  0  0  0
   22.5500   39.4020   32.5310 C   0  0  0  0  0  0  0  0  0  0  0  0
   21.8170   40.5380   30.5550 C   0  0  0  0  0  0  0  0  0  0  0  0
   18.8410   35.6580   32.3350 C   0  0  0  0  0  0  0  0  0  0  0  0
   20.4560   33.9020   31.9590 C   0  0  0  0  0  0  0  0  0  0  0  0
   21.8270   38.1050   30.6100 C   0  0  0  0  0  0  0  0  0  0  0  0
   20.6680   36.0650   30.8100 C   0  0  0  0  0  0  0  0  0  0  0  0
   21.4450   35.3850   28.0690 C   0  0  0  0  0  0  0  0  0  0  0  0
   22.3320   40.5890   31.8520 C   0  0  0  0  0  0  0  0  0  0  0  0
   19.2900   34.3530   32.5780 C   0  0  0  0  0  0  0  0  0  0  0  0
   21.4700   36.9030   29.9820 C   0  0  0  0  0  0  0  0  0  0  0  0
   21.8960   36.5560   28.6910 C   0  0  0  0  0  0  0  0  0  0  0  0
   22.3280   37.8300   26.4730 C   0  0  0  0  0  0  0  0  0  0  0  0
   15.3510   34.4330   35.8490 C   0  0  0  0  0  0  0  0  0  0  0  0
   15.7640   32.1680   36.7430 C   0  0  0  0  0  0  0  0  0  0  0  0
   22.8310   37.4760   27.8720 C   0  0  1  0  0  0  0  0  0  0  0  0
   16.9310   32.9010   34.8220 C   0  0  2  0  0  0  0  0  0  0  0  0
   17.6270   34.0990   34.1790 C   0  0  1  0  0  0  0  0  0  0  0  0
   16.3480   33.3540   36.0830 N   0  3  1  0  0  0  0  0  0  0  0  0
   22.5760   41.7880   32.4750 O   0  0  0  0  0  0  0  0  0  0  0  0
   18.6420   33.4890   33.4240 O   0  0  0  0  0  0  0  0  0  0  0  0
   17.0769   33.7162   36.6640 H   0  0  0  0  0  0  0  0  0  0  0  0
  1 30  1  0  0  0  0
  2 31  1  0  0  0  0
  3 32  1  0  0  0  0
  4 33  1  0  0  0  0
  5 34  1  0  0  0  0
  6 35  1  0  0  0  0
  7 36  1  0  0  0  0
  8 37  1  0  0  0  0
  9 38  1  0  0  0  0
 10 39  1  0  0  0  0
 11 40  1  0  0  0  0
 12 41  1  0  0  0  0
 13 42  1  0  0  0  0
 14 50  1  0  0  0  0
 15 50  1  0  0  0  0
 16 50  1  0  0  0  0
 17 51  1  0  0  0  0
 18 51  1  0  0  0  0
 19 51  1  0  0  0  0
 20 52  1  0  0  0  0
 21 52  1  0  0  0  0
 22 52  1  0  0  0  0
 23 53  1  0  0  0  0
 24 53  1  0  0  0  0
 25 54  1  0  0  0  0
 26 54  1  0  0  0  0
 27 55  1  0  0  0  0
 28 55  1  0  0  0  0
 29 57  1  0  0  0  0
 30 31  2  0  0  0  0
 30 32  1  0  0  0  0
 31 33  1  0  0  0  0
 32 34  2  0  0  0  0
 33 45  2  0  0  0  0
 34 45  1  0  0  0  0
 35 39  1  0  0  0  0
 35 43  2  0  0  0  0
 36 40  2  0  0  0  0
 36 43  1  0  0  0  0
 37 41  1  0  0  0  0
 37 44  2  0  0  0  0
 38 42  2  0  0  0  0
 38 44  1  0  0  0  0
 39 46  2  0  0  0  0
 40 46  1  0  0  0  0
 41 47  2  0  0  0  0
 42 47  1  0  0  0  0
 43 48  1  0  0  0  0
 44 48  1  0  0  0  0
 45 49  1  0  0  0  0
 46 57  1  0  0  0  0
 47 58  1  0  0  0  0
 48 49  2  0  0  0  0
 49 53  1  0  0  0  0
 50 53  1  0  0  0  0
 51 56  1  0  0  0  0
 52 56  1  0  0  0  0
 54 55  1  0  0  0  0
 54 56  1  0  0  0  0
 55 58  1  0  0  0  0
 56 59  1  0  0  0  0
M  CHG  1  56   1
M  END
> <scpdb_id>
2bj4_1

$$$$
