@<TRIPOS>MOLECULE
1w5t_ANP_2_ligand
   44    46     1     0     0
SMALL
NO_CHARGES


@<TRIPOS>ATOM
     1 PG          31.2560   -12.9910   -28.1920 P.3          1 ANP700   0.0000
     2 O1G         30.8140   -12.3400   -26.7930 O.co2        1 ANP700   0.0000
     3 O2G         32.1710   -14.3120   -28.0110 O.co2        1 ANP700  -1.0000
     4 O3G         31.9650   -11.8510   -29.0740 O.co2        1 ANP700  -1.0000
     5 PB          30.1630   -14.5850   -30.3120 P.3          1 ANP700   0.0000
     6 O1B         30.9630   -15.8820   -29.7980 O.co2        1 ANP700   0.0000
     7 O2B         30.9540   -13.8800   -31.4950 O.co2        1 ANP700  -1.0000
     8 N3B         29.8550   -13.4670   -29.0670 N.3          1 ANP700   0.0000
     9 PA          27.7690   -16.0870   -30.5510 P.3          1 ANP700   0.0000
    10 O1A         28.1740   -17.3380   -31.3900 O.co2        1 ANP700   0.0000
    11 O2A         27.8120   -16.2470   -28.9870 O.co2        1 ANP700  -1.0000
    12 O3A         28.7190   -14.8720   -30.9490 O.3          1 ANP700   0.0000
    13 O5'         26.3380   -15.5920   -31.1010 O.3          1 ANP700   0.0000
    14 C5'         25.6090   -14.5880   -30.3590 C.3          1 ANP700   0.0000
    15 C4'         24.1250   -14.9490   -30.3220 C.3          1 ANP700   0.0000
    16 O4'         23.5420   -14.8420   -31.6460 O.3          1 ANP700   0.0000
    17 C3'         23.9310   -16.3900   -29.8980 C.3          1 ANP700   0.0000
    18 O3'         22.7470   -16.4110   -29.1520 O.3          1 ANP700   0.0000
    19 C2'         23.6710   -17.1480   -31.1900 C.3          1 ANP700   0.0000
    20 O2'         22.5920   -18.0320   -31.0150 O.3          1 ANP700   0.0000
    21 C1'         23.1830   -16.1080   -32.1870 C.3          1 ANP700   0.0000
    22 N9          23.7950   -16.2520   -33.5240 N.pl3        1 ANP700   0.0000
    23 C8          24.9860   -15.7480   -33.9580 C.2          1 ANP700   0.0000
    24 N7          25.2700   -16.0210   -35.2660 N.2          1 ANP700   0.0000
    25 C5          24.2050   -16.7160   -35.7200 C.ar         1 ANP700   0.0000
    26 C6          23.7480   -17.3810   -36.9730 C.ar         1 ANP700   0.0000
    27 N6          24.5170   -17.3410   -38.1000 N.pl3        1 ANP700   0.0000
    28 N1          22.5480   -18.0050   -36.9730 N.ar         1 ANP700   0.0000
    29 C2          21.7660   -18.0880   -35.8840 C.ar         1 ANP700   0.0000
    30 N3          22.0500   -17.5390   -34.7030 N.ar         1 ANP700   0.0000
    31 C4          23.2890   -16.8420   -34.5960 C.ar         1 ANP700   0.0000
    32 H3B         29.2092   -13.8809   -28.4254 H            1 ANP700   0.0000
    33 H5'1        25.7236   -13.6990   -30.8023 H            1 ANP700   0.0000
    34 H5'2        25.9632   -14.5429   -29.4249 H            1 ANP700   0.0000
    35 H4'         23.6440   -14.3418   -29.6896 H            1 ANP700   0.0000
    36 H3'         24.7131   -16.7510   -29.3900 H            1 ANP700   0.0000
    37 H6          22.0882   -17.0231   -29.5894 H            1 ANP700   0.0000
    38 H2'         24.4901   -17.6203   -31.5157 H            1 ANP700   0.0000
    39 H8          22.9339   -18.9166   -30.6978 H            1 ANP700   0.0000
    40 H1'         22.1880   -16.1655   -32.2682 H            1 ANP700   0.0000
    41 H10         25.5996   -15.2229   -33.3683 H            1 ANP700   0.0000
    42 H11         24.2023   -17.7901   -38.9362 H            1 ANP700   0.0000
    43 H12         25.3951   -16.8626   -38.0894 H            1 ANP700   0.0000
    44 H13         20.9097   -18.5980   -35.9651 H            1 ANP700   0.0000
@<TRIPOS>BOND
     1    1    2      ar
     2    1    3      ar
     3    1    4      ar
     4    1    8       1
     5    5    6      ar
     6    5    7      ar
     7    5    8       1
     8    5   12       1
     9    9   10      ar
    10    9   11      ar
    11    9   12       1
    12    9   13       1
    13   13   14       1
    14   14   15       1
    15   15   16       1
    16   15   17       1
    17   16   21       1
    18   17   18       1
    19   17   19       1
    20   19   20       1
    21   19   21       1
    22   21   22       1
    23   22   23       1
    24   22   31       1
    25   23   24       2
    26   24   25       1
    27   25   26      ar
    28   25   31      ar
    29   26   27       1
    30   26   28      ar
    31   28   29      ar
    32   29   30      ar
    33   30   31      ar
    34   29   44       1
    35   27   43       1
    36   27   42       1
    37    8   32       1
    38   23   41       1
    39   14   33       1
    40   14   34       1
    41   15   35       1
    42   17   36       1
    43   18   37       1
    44   19   38       1
    45   20   39       1
    46   21   40       1
@<TRIPOS>SUBSTRUCTURE
     1 ANP700      1 GROUP             4 B     ANP     0 **** ANP B 700
