#    Name: 21339
#    Modification time : Tue Aug  8 21:18:05 2017

@<TRIPOS>MOLECULE
21339
   20     0     6     0     0
SMALL
NO_CHARGES


@<TRIPOS>ATOM
      1 N          15.5390   49.3720    2.8170 N.am      1 SEL1        0.0000 
      2 N          14.9820   48.6050    4.7950 N.am      1 SEL1        0.0000 
      3 N          13.1930   46.9800    5.2290 N.am      1 SEL1        0.0000 
      4 CA         12.0430   46.0320    3.3440 C.3       2 GLL5        0.0000 
      5 CA         12.5750   46.7800    1.1220 C.3       2 GLL5        0.0000 
      6 CA         13.7830   47.7510    2.9810 C.3       2 GLL5        0.0000 
      7 N          15.9220   50.1380    0.2270 N.am      3 SEP1        0.0000 
      8 N          16.0440   49.6640    7.1320 N.am      3 SEP1        0.0000 
      9 N          10.5580   47.0120    6.7560 N.am      3 SEP1        0.0000 
     10 CA         10.2630   49.9000    4.3520 C.3       4 GLP5        0.0000 
     11 CA         12.5120   44.0180   -1.5970 C.3       4 GLP5        0.0000 
     12 CA         11.7830   50.3400    4.5980 C.3       4 GLP5        0.0000 
     13 CA         15.4480   44.5300    2.5300 C.3       4 GLP5        0.0000 
     14 N          15.7305   49.7550    1.5220 N.am      5 SEC1        0.0000 
     15 N          15.5130   49.1345    5.9635 N.am      5 SEC1        0.0000 
     16 N          11.8755   46.9960    5.9925 N.am      5 SEC1        0.0000 
     17 CA         11.1530   47.9660    3.8480 C.3       6 GLC5        0.0000 
     18 CA         12.3543   45.1975   -0.0310 C.3       6 GLC5        0.0000 
     19 CA         12.6557   48.9290    3.7283 C.3       6 GLC5        0.0000 
     20 CA         14.0745   45.6391    2.5602 C.3       6 GLC5        0.0000 
@<TRIPOS>BOND
@<TRIPOS>SUBSTRUCTURE
     1 SEL1        1 GROUP        1 Z    SEL  0     ROOT SEL Z 0
     2 GLL5        4 GROUP        1 Z    GLL  0     **** GLL Z 4
     3 SEP1        7 GROUP        1 Z    SEP  0     **** SEP Z 7
     4 GLP5       10 GROUP        1 Z    GLP  0     **** GLP Z 11
     5 SEC1       14 GROUP        1 Z    SEC  0     **** SEC Z 14
     6 GLC5       17 GROUP        1 Z    GLC  0     **** GLC Z 18
@<TRIPOS>SET

