#    Name: 10106
#    Modification time : Tue Aug  8 21:11:01 2017

@<TRIPOS>MOLECULE
10106
   43     0    18     0     0
SMALL
NO_CHARGES


@<TRIPOS>ATOM
      1 N         133.4100   46.0380    7.4540 N.am      1 SEL1        0.0000 
      2 N         134.0620   48.3770    8.0040 N.am      1 SEL1        0.0000 
      3 N         135.6960   46.7220    7.0890 N.am      1 SEL1        0.0000 
      4 N         135.6780   48.6250   10.7420 N.am      1 SEL1        0.0000 
      5 N         135.0400   46.4850    9.4650 N.am      1 SEL1        0.0000 
      6 N         141.5360   45.5060   16.6870 N.am      1 SEL1        0.0000 
      7 O         142.2000   47.1270   15.1550 O.2       2 ALL2        0.0000 
      8 NZ        133.4100   46.0380    7.4540 N.4       3 LYL3        0.0000 
      9 NZ        135.6960   46.7220    7.0890 N.4       3 LYL3        0.0000 
     10 CA        134.6590   45.2520   12.2820 C.3       4 GLL5        0.0000 
     11 CA        135.5630   46.0310   15.7400 C.3       4 GLL5        0.0000 
     12 Zn        134.0620   48.3770    8.0040 Zn        5 ZIL7        0.0000 
     13 CZ        140.2717   45.5237   16.1590 C.ar      6 PHL6        0.0000 
     14 N         133.9490   43.2250    7.7120 N.am      7 SEP1        0.0000 
     15 N         136.3770   50.3990    8.4520 N.am      7 SEP1        0.0000 
     16 N         135.7080   45.9160    4.5840 N.am      7 SEP1        0.0000 
     17 N         137.9960   48.0360    8.3150 N.am      7 SEP1        0.0000 
     18 N         138.0440   45.5150    9.3730 N.am      7 SEP1        0.0000 
     19 N         136.7960   51.0700   11.1420 N.am      7 SEP1        0.0000 
     20 N         136.5280   49.2690   13.3160 N.am      7 SEP1        0.0000 
     21 N         144.1520   45.4520   18.1170 N.am      7 SEP1        0.0000 
     22 O         144.8490   47.5080   16.1690 O.2       8 ALP2        0.0000 
     23 NZ        135.7080   45.9160    4.5840 N.4       9 LYP3        0.0000 
     24 CA        133.6800   41.8060    9.7570 C.3      10 GLP5        0.0000 
     25 CA        136.7410   48.4690   19.0270 C.3      10 GLP5        0.0000 
     26 Zn        132.7220   49.6400    7.2290 Zn       11 ZIP7        0.0000 
     27 CZ        139.7918   42.5262   13.7512 C.ar     12 PHP6        0.0000 
     28 N         133.6795   44.6315    7.5830 N.am     13 SEC1        0.0000 
     29 N         135.2195   49.3880    8.2280 N.am     13 SEC1        0.0000 
     30 N         135.7020   46.3190    5.8365 N.am     13 SEC1        0.0000 
     31 N         136.8460   47.3790    7.7020 N.am     13 SEC1        0.0000 
     32 N         136.8700   46.1185    8.2310 N.am     13 SEC1        0.0000 
     33 N         136.2370   49.8475   10.9420 N.am     13 SEC1        0.0000 
     34 N         136.1030   48.9470   12.0290 N.am     13 SEC1        0.0000 
     35 N         136.5420   46.0000    9.4190 N.am     13 SEC1        0.0000 
     36 N         142.8440   45.4790   17.4020 N.am     13 SEC1        0.0000 
     37 O         143.5245   47.3175   15.6620 O.2      14 ALC2        0.0000 
     38 NZ        134.5590   45.9770    6.0190 N.4      15 LYC3        0.0000 
     39 NZ        135.7020   46.3190    5.8365 N.4      15 LYC3        0.0000 
     40 CA        134.1695   43.5290   11.0195 C.3      16 GLC5        0.0000 
     41 CA        136.1520   47.2500   17.3835 C.3      16 GLC5        0.0000 
     42 Zn        133.3920   49.0085    7.6165 Zn       17 ZIC7        0.0000 
     43 CZ        140.0317   44.0249   14.9551 C.ar     18 PHC6        0.0000 
@<TRIPOS>BOND
@<TRIPOS>SUBSTRUCTURE
     1 SEL1        1 GROUP        1 Z    SEL  0     ROOT SEL Z 0
     2 ALL2        7 GROUP        1 Z    ALL  0     **** ALL Z 1
     3 LYL3        8 GROUP        1 Z    LYL  0     **** LYL Z 2
     4 GLL5       10 GROUP        1 Z    GLL  0     **** GLL Z 4
     5 ZIL7       12 GROUP        1 Z    ZIL  0     **** ZIL Z 5
     6 PHL6       13 GROUP        1 Z    PHL  0     **** PHL Z 6
     7 SEP1       14 GROUP        1 Z    SEP  0     **** SEP Z 7
     8 ALP2       22 GROUP        1 Z    ALP  0     **** ALP Z 8
     9 LYP3       23 GROUP        1 Z    LYP  0     **** LYP Z 9
    10 GLP5       24 GROUP        1 Z    GLP  0     **** GLP Z 11
    11 ZIP7       26 GROUP        1 Z    ZIP  0     **** ZIP Z 12
    12 PHP6       27 GROUP        1 Z    PHP  0     **** PHP Z 13
    13 SEC1       28 GROUP        1 Z    SEC  0     **** SEC Z 14
    14 ALC2       37 GROUP        1 Z    ALC  0     **** ALC Z 15
    15 LYC3       38 GROUP        1 Z    LYC  0     **** LYC Z 16
    16 GLC5       40 GROUP        1 Z    GLC  0     **** GLC Z 18
    17 ZIC7       42 GROUP        1 Z    ZIC  0     **** ZIC Z 19
    18 PHC6       43 GROUP        1 Z    PHC  0     **** PHC Z 20
@<TRIPOS>SET

