#    Name: 13552
#    Modification time : Tue Aug  8 19:51:59 2017

@<TRIPOS>MOLECULE
13552
   72     0    12     0     0
SMALL
NO_CHARGES


@<TRIPOS>ATOM
      1 N          32.2100   34.9800   27.2830 N.am      1 SEL1        0.0000 
      2 N          27.2740   33.1620   27.4080 N.am      1 SEL1        0.0000 
      3 N          26.0130   32.0400   29.6170 N.am      1 SEL1        0.0000 
      4 N          25.6270   27.7180   27.8580 N.am      1 SEL1        0.0000 
      5 N          35.3720   33.9680   26.4980 N.am      1 SEL1        0.0000 
      6 N          33.3370   33.0960   25.1260 N.am      1 SEL1        0.0000 
      7 O          27.2740   33.1620   27.4080 O.2       2 ALL2        0.0000 
      8 O          26.0130   32.0400   29.6170 O.2       2 ALL2        0.0000 
      9 O          35.9040   27.5370   27.9120 O.2       2 ALL2        0.0000 
     10 O          40.2170   26.7860   22.2980 O.2       2 ALL2        0.0000 
     11 NZ         32.2100   34.9800   27.2830 N.4       3 LYL3        0.0000 
     12 NZ         35.3720   33.9680   26.4980 N.4       3 LYL3        0.0000 
     13 CA         30.5030   31.5810   27.8570 C.3       4 GLL5        0.0000 
     14 CA         27.3210   30.2180   28.4970 C.3       4 GLL5        0.0000 
     15 CA         34.2040   30.2800   26.0080 C.3       4 GLL5        0.0000 
     16 CA         35.0630   29.0900   26.1170 C.3       4 GLL5        0.0000 
     17 CA         37.3920   28.9090   25.7550 C.3       4 GLL5        0.0000 
     18 CA         40.1890   30.5790   22.9100 C.3       4 GLL5        0.0000 
     19 CA         39.0380   31.3840   23.4650 C.3       4 GLL5        0.0000 
     20 CA         38.4730   30.9290   24.6940 C.3       4 GLL5        0.0000 
     21 N          31.2760   35.2830   24.2900 N.am      5 SEP1        0.0000 
     22 N          34.2330   37.1650   26.8640 N.am      5 SEP1        0.0000 
     23 N          26.1060   35.2240   28.6180 N.am      5 SEP1        0.0000 
     24 N          22.6340   29.1940   28.6390 N.am      5 SEP1        0.0000 
     25 N          35.6350   36.1820   28.3990 N.am      5 SEP1        0.0000 
     26 N          31.3580   31.5330   24.2540 N.am      5 SEP1        0.0000 
     27 N          33.2100   33.9990   22.5480 N.am      5 SEP1        0.0000 
     28 O          25.3790   31.4340   26.2040 O.2       6 ALP2        0.0000 
     29 O          24.0590   31.5440   27.9660 O.2       6 ALP2        0.0000 
     30 O          33.2770   26.6920   28.0010 O.2       6 ALP2        0.0000 
     31 O          38.2820   25.5720   24.3570 O.2       6 ALP2        0.0000 
     32 O          41.0770   24.2530   21.3600 O.2       6 ALP2        0.0000 
     33 NZ         35.2020   37.2650   27.7720 N.4       7 LYP3        0.0000 
     34 CA         32.0390   29.7050   31.0090 C.3       8 GLP5        0.0000 
     35 CA         28.7530   26.2080   27.2450 C.3       8 GLP5        0.0000 
     36 CA         34.5920   31.9960   22.0990 C.3       8 GLP5        0.0000 
     37 CA         31.9730   28.2340   22.7880 C.3       8 GLP5        0.0000 
     38 CA         35.9320   29.8700   21.8810 C.3       8 GLP5        0.0000 
     39 CA         41.6760   29.5990   26.2280 C.3       8 GLP5        0.0000 
     40 CA         44.0080   30.5960   22.0530 C.3       8 GLP5        0.0000 
     41 CA         40.8500   29.8240   18.5760 C.3       8 GLP5        0.0000 
     42 CA         42.0040   33.5510   21.8560 C.3       8 GLP5        0.0000 
     43 CA         36.9600   35.0050   23.8900 C.3       8 GLP5        0.0000 
     44 N          31.7430   35.1315   25.7865 N.am      9 SEC1        0.0000 
     45 N          33.2215   36.0725   27.0735 N.am      9 SEC1        0.0000 
     46 N          26.6900   34.1930   28.0130 N.am      9 SEC1        0.0000 
     47 N          26.0595   33.6320   29.1175 N.am      9 SEC1        0.0000 
     48 N          24.1305   28.4560   28.2485 N.am      9 SEC1        0.0000 
     49 N          35.5035   35.0750   27.4485 N.am      9 SEC1        0.0000 
     50 N          34.8025   35.5665   26.6810 N.am      9 SEC1        0.0000 
     51 N          32.3475   32.3145   24.6900 N.am      9 SEC1        0.0000 
     52 N          33.2735   33.5475   23.8370 N.am      9 SEC1        0.0000 
     53 O          26.3265   32.2980   26.8060 O.2      10 ALC2        0.0000 
     54 O          25.0360   31.7920   28.7915 O.2      10 ALC2        0.0000 
     55 O          34.5905   27.1145   27.9565 O.2      10 ALC2        0.0000 
     56 O          39.2495   26.1790   23.3275 O.2      10 ALC2        0.0000 
     57 O          40.6470   25.5195   21.8290 O.2      10 ALC2        0.0000 
     58 NZ         33.7060   36.1225   27.5275 N.4      11 LYC3        0.0000 
     59 NZ         35.2870   35.6165   27.1350 N.4      11 LYC3        0.0000 
     60 CA         31.2710   30.6430   29.4330 C.3      12 GLC5        0.0000 
     61 CA         28.0370   28.2130   27.8710 C.3      12 GLC5        0.0000 
     62 CA         34.3980   31.1380   24.0535 C.3      12 GLC5        0.0000 
     63 CA         33.0885   29.2570   24.3980 C.3      12 GLC5        0.0000 
     64 CA         35.4975   29.4800   23.9990 C.3      12 GLC5        0.0000 
     65 CA         36.6620   29.3895   23.8180 C.3      12 GLC5        0.0000 
     66 CA         39.5340   29.2540   25.9915 C.3      12 GLC5        0.0000 
     67 CA         42.0985   30.5875   22.4815 C.3      12 GLC5        0.0000 
     68 CA         40.5195   30.2015   20.7430 C.3      12 GLC5        0.0000 
     69 CA         40.8088   32.2662   22.5218 C.3      12 GLC5        0.0000 
     70 CA         37.8577   33.0808   23.9848 C.3      12 GLC5        0.0000 
     71 CA         37.4876   30.4126   22.9109 C.3      12 GLC5        0.0000 
     72 CA         40.3596   30.2771   25.0844 C.3      12 GLC5        0.0000 
@<TRIPOS>BOND
@<TRIPOS>SUBSTRUCTURE
     1 SEL1        1 GROUP        1 Z    SEL  0     ROOT SEL Z 0
     2 ALL2        7 GROUP        1 Z    ALL  0     **** ALL Z 1
     3 LYL3       11 GROUP        1 Z    LYL  0     **** LYL Z 2
     4 GLL5       13 GROUP        1 Z    GLL  0     **** GLL Z 4
     5 SEP1       21 GROUP        1 Z    SEP  0     **** SEP Z 7
     6 ALP2       28 GROUP        1 Z    ALP  0     **** ALP Z 8
     7 LYP3       33 GROUP        1 Z    LYP  0     **** LYP Z 9
     8 GLP5       34 GROUP        1 Z    GLP  0     **** GLP Z 11
     9 SEC1       44 GROUP        1 Z    SEC  0     **** SEC Z 14
    10 ALC2       53 GROUP        1 Z    ALC  0     **** ALC Z 15
    11 LYC3       58 GROUP        1 Z    LYC  0     **** LYC Z 16
    12 GLC5       60 GROUP        1 Z    GLC  0     **** GLC Z 18
@<TRIPOS>SET

