1g50_EST_2_ligand
  -OEChem-08111718373D

 44 47  0     1  0  0  0  0  0999 V2000
   34.7217   31.3305   46.6936 H   0  0  0  0  0  0  0  0  0  0  0  0
   33.7875   33.3313   45.6778 H   0  0  0  0  0  0  0  0  0  0  0  0
   36.7845   35.6847   47.4946 H   0  0  0  0  0  0  0  0  0  0  0  0
   37.9256   34.4456   49.5857 H   0  0  0  0  0  0  0  0  0  0  0  0
   38.8996   34.2152   48.2954 H   0  0  0  0  0  0  0  0  0  0  0  0
   38.3021   32.3950   50.4033 H   0  0  0  0  0  0  0  0  0  0  0  0
   39.7309   32.6441   49.6529 H   0  0  0  0  0  0  0  0  0  0  0  0
   37.2412   29.8491   46.6881 H   0  0  0  0  0  0  0  0  0  0  0  0
   35.8228   29.5605   47.4441 H   0  0  0  0  0  0  0  0  0  0  0  0
   40.8090   30.4952   50.5234 H   0  0  0  0  0  0  0  0  0  0  0  0
   41.1767   30.0954   48.9834 H   0  0  0  0  0  0  0  0  0  0  0  0
   40.7462   28.2980   51.1892 H   0  0  0  0  0  0  0  0  0  0  0  0
   41.6100   28.0057   49.8345 H   0  0  0  0  0  0  0  0  0  0  0  0
   37.3036   27.6855   47.6639 H   0  0  0  0  0  0  0  0  0  0  0  0
   36.9431   28.3123   49.1281 H   0  0  0  0  0  0  0  0  0  0  0  0
   36.5163   30.9049   49.2760 H   0  0  0  0  0  0  0  0  0  0  0  0
   38.9955   31.3557   47.7974 H   0  0  0  0  0  0  0  0  0  0  0  0
   38.5907   29.8485   50.2346 H   0  0  0  0  0  0  0  0  0  0  0  0
   38.8603   27.5145   50.2901 H   0  0  0  0  0  0  0  0  0  0  0  0
   40.7118   28.7218   47.3991 H   0  0  0  0  0  0  0  0  0  0  0  0
   39.5919   27.7158   46.7662 H   0  0  0  0  0  0  0  0  0  0  0  0
   39.4267   29.3316   46.5971 H   0  0  0  0  0  0  0  0  0  0  0  0
   33.9087   35.7892   45.3334 H   0  0  0  0  0  0  0  0  0  0  0  0
   40.3083   25.8392   49.7842 H   0  0  0  0  0  0  0  0  0  0  0  0
   35.1510   32.2180   46.8610 C   0  0  0  0  0  0  0  0  0  0  0  0
   34.5980   33.3960   46.2600 C   0  0  0  0  0  0  0  0  0  0  0  0
   36.3690   34.7890   47.3360 C   0  0  0  0  0  0  0  0  0  0  0  0
   36.3310   32.2970   47.7130 C   0  0  0  0  0  0  0  0  0  0  0  0
   36.9360   33.6300   47.9510 C   0  0  0  0  0  0  0  0  0  0  0  0
   35.2240   34.6860   46.5030 C   0  0  0  0  0  0  0  0  0  0  0  0
   38.1740   33.8120   48.8530 C   0  0  2  0  0  0  0  0  0  0  0  0
   38.7480   32.5200   49.5170 C   0  0  2  0  0  0  0  0  0  0  0  0
   36.8000   29.7260   47.5770 C   0  0  1  0  0  0  0  0  0  0  0  0
   40.5930   29.8790   49.7660 C   0  0  1  0  0  0  0  0  0  0  0  0
   40.7570   28.3850   50.1930 C   0  0  2  0  0  0  0  0  0  0  0  0
   37.4210   28.4760   48.2650 C   0  0  2  0  0  0  0  0  0  0  0  0
   36.9690   31.0360   48.3940 C   0  0  1  0  0  0  0  0  0  0  0  0
   38.5280   31.2420   48.6740 C   0  0  2  0  0  0  0  0  0  0  0  0
   39.1110   29.9680   49.3890 C   0  0  1  0  0  0  0  0  0  0  0  0
   39.5320   27.6710   49.5660 C   0  0  1  0  0  0  0  0  0  0  0  0
   38.9230   28.6600   48.5560 C   0  0  1  0  0  0  0  0  0  0  0  0
   39.7380   28.6020   47.2060 C   0  0  0  0  0  0  0  0  0  0  0  0
   34.7140   35.8400   45.9240 O   0  0  0  0  0  0  0  0  0  0  0  0
   39.9290   26.3970   49.0460 O   0  0  0  0  0  0  0  0  0  0  0  0
  1 25  1  0  0  0  0
  2 26  1  0  0  0  0
  3 27  1  0  0  0  0
  4 31  1  0  0  0  0
  5 31  1  0  0  0  0
  6 32  1  0  0  0  0
  7 32  1  0  0  0  0
  8 33  1  0  0  0  0
  9 33  1  0  0  0  0
 10 34  1  0  0  0  0
 11 34  1  0  0  0  0
 12 35  1  0  0  0  0
 13 35  1  0  0  0  0
 14 36  1  0  0  0  0
 15 36  1  0  0  0  0
 16 37  1  0  0  0  0
 17 38  1  0  0  0  0
 18 39  1  0  0  0  0
 19 40  1  0  0  0  0
 20 42  1  0  0  0  0
 21 42  1  0  0  0  0
 22 42  1  0  0  0  0
 23 43  1  0  0  0  0
 24 44  1  0  0  0  0
 25 26  2  0  0  0  0
 25 28  1  0  0  0  0
 26 30  1  0  0  0  0
 27 29  1  0  0  0  0
 27 30  2  0  0  0  0
 28 29  2  0  0  0  0
 28 37  1  0  0  0  0
 29 31  1  0  0  0  0
 30 43  1  0  0  0  0
 31 32  1  0  0  0  0
 32 38  1  0  0  0  0
 33 36  1  0  0  0  0
 33 37  1  0  0  0  0
 34 35  1  0  0  0  0
 34 39  1  0  0  0  0
 35 40  1  0  0  0  0
 36 41  1  0  0  0  0
 37 38  1  0  0  0  0
 38 39  1  0  0  0  0
 39 41  1  0  0  0  0
 40 41  1  0  0  0  0
 40 44  1  0  0  0  0
 41 42  1  0  0  0  0
M  END
> <scpdb_id>
1g50_2

$$$$
